# generated using pymatgen
data_AlO6
_symmetry_space_group_name_H-M   'P 1'
_cell_length_a   15.94730000
_cell_length_b   6.63100000
_cell_length_c   13.92050000
_cell_angle_alpha   90.00000000
_cell_angle_beta   90.00000000
_cell_angle_gamma   90.00000000
_symmetry_Int_Tables_number   1
_chemical_formula_structural   AlO6
_chemical_formula_sum   'Al1 O6'
_cell_volume   1472.04479777
_cell_formula_units_Z   1
loop_
 _symmetry_equiv_pos_site_id
 _symmetry_equiv_pos_as_xyz
  1  'x, y, z'
loop_
 _atom_site_type_symbol
 _atom_site_label
 _atom_site_symmetry_multiplicity
 _atom_site_fract_x
 _atom_site_fract_y
 _atom_site_fract_z
 _atom_site_occupancy
  Al  Al0  1  0.00100000  0.99515000  0.50031000  1
  O  O1  1  -0.07975000  0.91622000  0.58289000  1
  O  O2  1  -0.07955000  1.07429000  0.41733000  1
  O  O3  1  0.08136000  1.07312000  0.41698000  1
  O  O4  1  0.08094000  0.91732000  0.58415000  1
  O  O5  1  0.00339000  0.74456000  0.44919000  1
  O  O6  1  0.00294000  1.24460000  0.55192000  1
