# generated using pymatgen
data_AlO6
_symmetry_space_group_name_H-M   'P 1'
_cell_length_a   15.94730000
_cell_length_b   6.63100000
_cell_length_c   13.92050000
_cell_angle_alpha   90.00000000
_cell_angle_beta   90.00000000
_cell_angle_gamma   90.00000000
_symmetry_Int_Tables_number   1
_chemical_formula_structural   AlO6
_chemical_formula_sum   'Al1 O6'
_cell_volume   1472.04479777
_cell_formula_units_Z   1
loop_
 _symmetry_equiv_pos_site_id
 _symmetry_equiv_pos_as_xyz
  1  'x, y, z'
loop_
 _atom_site_type_symbol
 _atom_site_label
 _atom_site_symmetry_multiplicity
 _atom_site_fract_x
 _atom_site_fract_y
 _atom_site_fract_z
 _atom_site_occupancy
  Al  Al0  1  0.50004000  0.49638000  0.00040000  1
  O  O1  1  0.42024000  0.41808000  0.08417000  1
  O  O2  1  0.41955000  0.57549000  -0.08242000  1
  O  O3  1  0.58003000  0.57496000  -0.08357000  1
  O  O4  1  0.58133000  0.41850000  0.08258000  1
  O  O5  1  0.49828000  0.24616000  -0.05079000  1
  O  O6  1  0.49957000  0.74618000  0.05199000  1
