# generated using pymatgen
data_Al
_symmetry_space_group_name_H-M   'P 1'
_cell_length_a   15.94730000
_cell_length_b   6.63100000
_cell_length_c   13.92050000
_cell_angle_alpha   90.00000000
_cell_angle_beta   90.00000000
_cell_angle_gamma   90.00000000
_symmetry_Int_Tables_number   1
_chemical_formula_structural   Al
_chemical_formula_sum   Al4
_cell_volume   1472.04479777
_cell_formula_units_Z   4
loop_
 _symmetry_equiv_pos_site_id
 _symmetry_equiv_pos_as_xyz
  1  'x, y, z'
loop_
 _atom_site_type_symbol
 _atom_site_label
 _atom_site_symmetry_multiplicity
 _atom_site_fract_x
 _atom_site_fract_y
 _atom_site_fract_z
 _atom_site_occupancy
  Al  Al0  1  0.00127000  0.49458000  0.50093000  1
  Al  Al1  1  0.50021000  0.99641000  0.00072000  1
  Al  Al2  1  0.00100000  0.99515000  0.50031000  1
  Al  Al3  1  0.50004000  0.49638000  0.00040000  1
