# generated using pymatgen
data_HC3O2
_symmetry_space_group_name_H-M   'P 1'
_cell_length_a   18.62730000
_cell_length_b   18.62730000
_cell_length_c   18.62730000
_cell_angle_alpha   60.00000000
_cell_angle_beta   60.00000000
_cell_angle_gamma   60.00000000
_symmetry_Int_Tables_number   1
_chemical_formula_structural   HC3O2
_chemical_formula_sum   'H24 C72 O48'
_cell_volume   4570.19498574
_cell_formula_units_Z   24
loop_
 _symmetry_equiv_pos_site_id
 _symmetry_equiv_pos_as_xyz
  1  'x, y, z'
loop_
 _atom_site_type_symbol
 _atom_site_label
 _atom_site_symmetry_multiplicity
 _atom_site_fract_x
 _atom_site_fract_y
 _atom_site_fract_z
 _atom_site_occupancy
  H  H0  1  0.72800000  0.72800000  0.51160000  1
  H  H1  1  0.72800000  0.72800000  0.03240000  1
  H  H2  1  0.51160000  0.03240000  0.72800000  1
  H  H3  1  0.03240000  0.51160000  0.72800000  1
  H  H4  1  0.72800000  0.51160000  0.03240000  1
  H  H5  1  0.72800000  0.03240000  0.51160000  1
  H  H6  1  0.51160000  0.72800000  0.72800000  1
  H  H7  1  0.03240000  0.72800000  0.72800000  1
  H  H8  1  0.72800000  0.03240000  0.72800000  1
  H  H9  1  0.72800000  0.51160000  0.72800000  1
  H  H10  1  0.51160000  0.72800000  0.03240000  1
  H  H11  1  0.03240000  0.72800000  0.51160000  1
  H  H12  1  0.27200000  0.27200000  0.48840000  1
  H  H13  1  0.27200000  0.27200000  0.96760000  1
  H  H14  1  0.96760000  0.48840000  0.27200000  1
  H  H15  1  0.48840000  0.96760000  0.27200000  1
  H  H16  1  0.48840000  0.27200000  0.96760000  1
  H  H17  1  0.96760000  0.27200000  0.48840000  1
  H  H18  1  0.27200000  0.48840000  0.27200000  1
  H  H19  1  0.27200000  0.96760000  0.27200000  1
  H  H20  1  0.96760000  0.27200000  0.27200000  1
  H  H21  1  0.48840000  0.27200000  0.27200000  1
  H  H22  1  0.27200000  0.48840000  0.96760000  1
  H  H23  1  0.27200000  0.96760000  0.48840000  1
  C  C24  1  0.25700000  0.96900000  0.38700000  1
  C  C25  1  0.96900000  0.25700000  0.38700000  1
  C  C26  1  0.38700000  0.38700000  0.25700000  1
  C  C27  1  0.38700000  0.38700000  0.96900000  1
  C  C28  1  0.25700000  0.38700000  0.38700000  1
  C  C29  1  0.96900000  0.38700000  0.38700000  1
  C  C30  1  0.38700000  0.25700000  0.96900000  1
  C  C31  1  0.38700000  0.96900000  0.25700000  1
  C  C32  1  0.25700000  0.38700000  0.96900000  1
  C  C33  1  0.96900000  0.38700000  0.25700000  1
  C  C34  1  0.38700000  0.96900000  0.38700000  1
  C  C35  1  0.38700000  0.25700000  0.38700000  1
  C  C36  1  0.03100000  0.74300000  0.61300000  1
  C  C37  1  0.74300000  0.03100000  0.61300000  1
  C  C38  1  0.61300000  0.61300000  0.74300000  1
  C  C39  1  0.61300000  0.61300000  0.03100000  1
  C  C40  1  0.61300000  0.74300000  0.61300000  1
  C  C41  1  0.61300000  0.03100000  0.61300000  1
  C  C42  1  0.74300000  0.61300000  0.03100000  1
  C  C43  1  0.03100000  0.61300000  0.74300000  1
  C  C44  1  0.61300000  0.74300000  0.03100000  1
  C  C45  1  0.61300000  0.03100000  0.74300000  1
  C  C46  1  0.03100000  0.61300000  0.61300000  1
  C  C47  1  0.74300000  0.61300000  0.61300000  1
  C  C48  1  0.56870000  0.56870000  0.83770000  1
  C  C49  1  0.56870000  0.56870000  0.02490000  1
  C  C50  1  0.83770000  0.02490000  0.56870000  1
  C  C51  1  0.02490000  0.83770000  0.56870000  1
  C  C52  1  0.56870000  0.83770000  0.02490000  1
  C  C53  1  0.56870000  0.02490000  0.83770000  1
  C  C54  1  0.83770000  0.56870000  0.56870000  1
  C  C55  1  0.02490000  0.56870000  0.56870000  1
  C  C56  1  0.56870000  0.02490000  0.56870000  1
  C  C57  1  0.56870000  0.83770000  0.56870000  1
  C  C58  1  0.83770000  0.56870000  0.02490000  1
  C  C59  1  0.02490000  0.56870000  0.83770000  1
  C  C60  1  0.43130000  0.43130000  0.16230000  1
  C  C61  1  0.43130000  0.43130000  0.97510000  1
  C  C62  1  0.97510000  0.16230000  0.43130000  1
  C  C63  1  0.16230000  0.97510000  0.43130000  1
  C  C64  1  0.16230000  0.43130000  0.97510000  1
  C  C65  1  0.97510000  0.43130000  0.16230000  1
  C  C66  1  0.43130000  0.16230000  0.43130000  1
  C  C67  1  0.43130000  0.97510000  0.43130000  1
  C  C68  1  0.97510000  0.43130000  0.43130000  1
  C  C69  1  0.16230000  0.43130000  0.43130000  1
  C  C70  1  0.43130000  0.16230000  0.97510000  1
  C  C71  1  0.43130000  0.97510000  0.16230000  1
  C  C72  1  0.30060000  0.96840000  0.43040000  1
  C  C73  1  0.96840000  0.30060000  0.30060000  1
  C  C74  1  0.43040000  0.30060000  0.30060000  1
  C  C75  1  0.30060000  0.43040000  0.96840000  1
  C  C76  1  0.30060000  0.43040000  0.30060000  1
  C  C77  1  0.96840000  0.30060000  0.43040000  1
  C  C78  1  0.43040000  0.30060000  0.96840000  1
  C  C79  1  0.30060000  0.96840000  0.30060000  1
  C  C80  1  0.30060000  0.30060000  0.96840000  1
  C  C81  1  0.96840000  0.43040000  0.30060000  1
  C  C82  1  0.43040000  0.96840000  0.30060000  1
  C  C83  1  0.30060000  0.30060000  0.43040000  1
  C  C84  1  0.03160000  0.69940000  0.56960000  1
  C  C85  1  0.69940000  0.03160000  0.69940000  1
  C  C86  1  0.69940000  0.56960000  0.69940000  1
  C  C87  1  0.56960000  0.69940000  0.03160000  1
  C  C88  1  0.56960000  0.69940000  0.69940000  1
  C  C89  1  0.69940000  0.03160000  0.56960000  1
  C  C90  1  0.69940000  0.56960000  0.03160000  1
  C  C91  1  0.03160000  0.69940000  0.69940000  1
  C  C92  1  0.69940000  0.69940000  0.03160000  1
  C  C93  1  0.56960000  0.03160000  0.69940000  1
  C  C94  1  0.03160000  0.56960000  0.69940000  1
  C  C95  1  0.69940000  0.69940000  0.56960000  1
  O  O96  1  0.61201000  0.49247000  0.87425000  1
  O  O97  1  0.49247000  0.61201000  0.02127000  1
  O  O98  1  0.87425000  0.02127000  0.61201000  1
  O  O99  1  0.02127000  0.87425000  0.49247000  1
  O  O100  1  0.61201000  0.87425000  0.02127000  1
  O  O101  1  0.49247000  0.02127000  0.87425000  1
  O  O102  1  0.87425000  0.61201000  0.49247000  1
  O  O103  1  0.02127000  0.49247000  0.61201000  1
  O  O104  1  0.61201000  0.02127000  0.49247000  1
  O  O105  1  0.49247000  0.87425000  0.61201000  1
  O  O106  1  0.87425000  0.49247000  0.02127000  1
  O  O107  1  0.02127000  0.61201000  0.87425000  1
  O  O108  1  0.50753000  0.38799000  0.12575000  1
  O  O109  1  0.38799000  0.50753000  0.97873000  1
  O  O110  1  0.97873000  0.12575000  0.38799000  1
  O  O111  1  0.12575000  0.97873000  0.50753000  1
  O  O112  1  0.12575000  0.38799000  0.97873000  1
  O  O113  1  0.97873000  0.50753000  0.12575000  1
  O  O114  1  0.38799000  0.12575000  0.50753000  1
  O  O115  1  0.50753000  0.97873000  0.38799000  1
  O  O116  1  0.97873000  0.38799000  0.50753000  1
  O  O117  1  0.12575000  0.50753000  0.38799000  1
  O  O118  1  0.50753000  0.12575000  0.97873000  1
  O  O119  1  0.38799000  0.97873000  0.12575000  1
  O  O120  1  0.38799000  0.50753000  0.12575000  1
  O  O121  1  0.50753000  0.38799000  0.97873000  1
  O  O122  1  0.12575000  0.97873000  0.38799000  1
  O  O123  1  0.97873000  0.12575000  0.50753000  1
  O  O124  1  0.38799000  0.12575000  0.97873000  1
  O  O125  1  0.50753000  0.97873000  0.12575000  1
  O  O126  1  0.12575000  0.38799000  0.50753000  1
  O  O127  1  0.97873000  0.50753000  0.38799000  1
  O  O128  1  0.38799000  0.97873000  0.50753000  1
  O  O129  1  0.50753000  0.12575000  0.38799000  1
  O  O130  1  0.12575000  0.50753000  0.97873000  1
  O  O131  1  0.97873000  0.38799000  0.12575000  1
  O  O132  1  0.49247000  0.61201000  0.87425000  1
  O  O133  1  0.61201000  0.49247000  0.02127000  1
  O  O134  1  0.02127000  0.87425000  0.61201000  1
  O  O135  1  0.87425000  0.02127000  0.49247000  1
  O  O136  1  0.87425000  0.61201000  0.02127000  1
  O  O137  1  0.02127000  0.49247000  0.87425000  1
  O  O138  1  0.61201000  0.87425000  0.49247000  1
  O  O139  1  0.49247000  0.02127000  0.61201000  1
  O  O140  1  0.02127000  0.61201000  0.49247000  1
  O  O141  1  0.87425000  0.49247000  0.61201000  1
  O  O142  1  0.49247000  0.87425000  0.02127000  1
  O  O143  1  0.61201000  0.02127000  0.87425000  1
