# generated using pymatgen
data_NdO9
_symmetry_space_group_name_H-M   'P 1'
_cell_length_a   8.90210000
_cell_length_b   10.21510000
_cell_length_c   10.21510000
_cell_angle_alpha   120.00000000
_cell_angle_beta   90.00000000
_cell_angle_gamma   90.00000000
_symmetry_Int_Tables_number   1
_chemical_formula_structural   NdO9
_chemical_formula_sum   'Nd1 O9'
_cell_volume   804.46720667
_cell_formula_units_Z   1
loop_
 _symmetry_equiv_pos_site_id
 _symmetry_equiv_pos_as_xyz
  1  'x, y, z'
loop_
 _atom_site_type_symbol
 _atom_site_label
 _atom_site_symmetry_multiplicity
 _atom_site_fract_x
 _atom_site_fract_y
 _atom_site_fract_z
 _atom_site_occupancy
  Nd  Nd0  1  0.05114000  0.66666667  0.33333333  1
  O  O1  1  -0.13540000  0.48250000  0.16090000  1
  O  O2  1  -0.13540000  0.67840000  0.51750000  1
  O  O3  1  -0.13540000  0.83910000  0.32160000  1
  O  O4  1  0.07640000  0.65000000  0.08400000  1
  O  O5  1  0.26330000  0.51120000  0.16160000  1
  O  O6  1  0.07640000  0.43400000  0.35000000  1
  O  O7  1  0.26330000  0.65040000  0.48880000  1
  O  O8  1  0.07640000  0.91600000  0.56600000  1
  O  O9  1  0.26330000  0.83840000  0.34960000  1
