# generated using pymatgen
data_H2C3O4
_symmetry_space_group_name_H-M   'P 1'
_cell_length_a   8.90210000
_cell_length_b   10.21510000
_cell_length_c   10.21510000
_cell_angle_alpha   120.00000000
_cell_angle_beta   90.00000000
_cell_angle_gamma   90.00000000
_symmetry_Int_Tables_number   1
_chemical_formula_structural   H2C3O4
_chemical_formula_sum   'H12 C18 O24'
_cell_volume   804.46720667
_cell_formula_units_Z   6
loop_
 _symmetry_equiv_pos_site_id
 _symmetry_equiv_pos_as_xyz
  1  'x, y, z'
loop_
 _atom_site_type_symbol
 _atom_site_label
 _atom_site_symmetry_multiplicity
 _atom_site_fract_x
 _atom_site_fract_y
 _atom_site_fract_z
 _atom_site_occupancy
  H  H0  1  0.56290000  0.48130000  0.11680000  1
  H  H1  1  0.72200000  0.63140000  0.06020000  1
  H  H2  1  0.56290000  0.63550000  0.51870000  1
  H  H3  1  0.72200000  0.42880000  0.36860000  1
  H  H4  1  0.56290000  0.88320000  0.36450000  1
  H  H5  1  0.72200000  0.93980000  0.57120000  1
  H  H6  1  0.43710000  0.51870000  0.88320000  1
  H  H7  1  0.27800000  0.36860000  0.93980000  1
  H  H8  1  0.43710000  0.36450000  0.48130000  1
  H  H9  1  0.27800000  0.57120000  0.63140000  1
  H  H10  1  0.43710000  0.11680000  0.63550000  1
  H  H11  1  0.27800000  0.06020000  0.42880000  1
  C  C12  1  0.84500000  0.44570000  0.02530000  1
  C  C13  1  0.56740000  0.46240000  0.01290000  1
  C  C14  1  0.71680000  0.52180000  0.99160000  1
  C  C15  1  0.84500000  0.57960000  0.55430000  1
  C  C16  1  0.56740000  0.55050000  0.53760000  1
  C  C17  1  0.71680000  0.46980000  0.47820000  1
  C  C18  1  0.84500000  0.97470000  0.42040000  1
  C  C19  1  0.56740000  0.98710000  0.44950000  1
  C  C20  1  0.71680000  0.00840000  0.53020000  1
  C  C21  1  0.15500000  0.55430000  0.97470000  1
  C  C22  1  0.43260000  0.53760000  0.98710000  1
  C  C23  1  0.28320000  0.47820000  0.00840000  1
  C  C24  1  0.15500000  0.42040000  0.44570000  1
  C  C25  1  0.43260000  0.44950000  0.46240000  1
  C  C26  1  0.28320000  0.53020000  0.52180000  1
  C  C27  1  0.15500000  0.02530000  0.57960000  1
  C  C28  1  0.43260000  0.01290000  0.55050000  1
  C  C29  1  0.28320000  0.99160000  0.46980000  1
  O  O30  1  0.55920000  0.30260000  0.91220000  1
  O  O31  1  0.92360000  0.35000000  0.91600000  1
  O  O32  1  0.86460000  0.48250000  0.16090000  1
  O  O33  1  0.73670000  0.48880000  0.83840000  1
  O  O34  1  0.55920000  0.60960000  0.69740000  1
  O  O35  1  0.92360000  0.56600000  0.65000000  1
  O  O36  1  0.86460000  0.67840000  0.51750000  1
  O  O37  1  0.73670000  0.34960000  0.51120000  1
  O  O38  1  0.55920000  0.08780000  0.39040000  1
  O  O39  1  0.92360000  0.08400000  0.43400000  1
  O  O40  1  0.86460000  0.83910000  0.32160000  1
  O  O41  1  0.73670000  0.16160000  0.65040000  1
  O  O42  1  0.44080000  0.69740000  0.08780000  1
  O  O43  1  0.07640000  0.65000000  0.08400000  1
  O  O44  1  0.13540000  0.51750000  0.83910000  1
  O  O45  1  0.26330000  0.51120000  0.16160000  1
  O  O46  1  0.44080000  0.39040000  0.30260000  1
  O  O47  1  0.07640000  0.43400000  0.35000000  1
  O  O48  1  0.13540000  0.32160000  0.48250000  1
  O  O49  1  0.26330000  0.65040000  0.48880000  1
  O  O50  1  0.44080000  0.91220000  0.60960000  1
  O  O51  1  0.07640000  0.91600000  0.56600000  1
  O  O52  1  0.13540000  0.16090000  0.67840000  1
  O  O53  1  0.26330000  0.83840000  0.34960000  1
