# generated using pymatgen
data_H4(C3O4)3
_symmetry_space_group_name_H-M   'P 1'
_cell_length_a   10.63300000
_cell_length_b   10.63300000
_cell_length_c   11.01180000
_cell_angle_alpha   78.59540000
_cell_angle_beta   62.52850000
_cell_angle_gamma   108.51100000
_symmetry_Int_Tables_number   1
_chemical_formula_structural   H4(C3O4)3
_chemical_formula_sum   'H8 C18 O24'
_cell_volume   955.79953008
_cell_formula_units_Z   2
loop_
 _symmetry_equiv_pos_site_id
 _symmetry_equiv_pos_as_xyz
  1  'x, y, z'
loop_
 _atom_site_type_symbol
 _atom_site_label
 _atom_site_symmetry_multiplicity
 _atom_site_fract_x
 _atom_site_fract_y
 _atom_site_fract_z
 _atom_site_occupancy
  H  H0  1  0.03730000  0.61880000  0.68830000  1
  H  H1  1  0.89770000  0.51460000  0.85590000  1
  H  H2  1  0.80710000  0.72560000  0.81170000  1
  H  H3  1  0.87050000  0.75360000  0.64410000  1
  H  H4  1  0.96270000  0.38120000  0.31170000  1
  H  H5  1  0.10230000  0.48540000  0.14410000  1
  H  H6  1  0.19290000  0.27440000  0.18830000  1
  H  H7  1  0.12950000  0.24640000  0.35590000  1
  C  C8  1  0.09540000  0.65040000  0.83240000  1
  C  C9  1  0.01010000  0.55390000  0.78080000  1
  C  C10  1  0.04730000  0.43020000  0.75790000  1
  C  C11  1  0.60030000  0.37370000  0.62480000  1
  C  C12  1  0.98280000  0.92780000  0.66760000  1
  C  C13  1  0.83470000  0.79090000  0.71920000  1
  C  C14  1  0.68810000  0.80520000  0.74210000  1
  C  C15  1  0.49850000  0.22510000  0.87520000  1
  C  C16  1  0.90460000  0.34960000  0.16760000  1
  C  C17  1  0.98990000  0.44610000  0.21920000  1
  C  C18  1  0.95270000  0.56980000  0.24210000  1
  C  C19  1  0.39970000  0.62630000  0.37520000  1
  C  C20  1  0.01720000  0.07220000  0.33240000  1
  C  C21  1  0.16530000  0.20910000  0.28080000  1
  C  C22  1  0.31190000  0.19480000  0.25790000  1
  C  C23  1  0.50150000  0.77490000  0.12480000  1
  C  C24  1  0.62480000  0.37480000  0.75000000  1
  C  C25  1  0.37520000  0.62520000  0.25000000  1
  O  O26  1  0.24439000  0.69339000  0.77300000  1
  O  O27  1  0.01510000  0.68790000  0.92820000  1
  O  O28  1  0.18470000  0.44410000  0.70980000  1
  O  O29  1  0.93280000  0.31960000  0.78480000  1
  O  O30  1  0.54130000  0.44950000  0.59120000  1
  O  O31  1  0.63474000  0.29316000  0.56010000  1
  O  O32  1  0.96639000  0.01739000  0.72700000  1
  O  O33  1  0.11610000  0.94330000  0.57180000  1
  O  O34  1  0.65390000  0.89450000  0.79020000  1
  O  O35  1  0.60440000  0.71760000  0.71520000  1
  O  O36  1  0.54070000  0.13250000  0.90880000  1
  O  O37  1  0.35326000  0.19484000  0.93990000  1
  O  O38  1  0.75561000  0.30661000  0.22700000  1
  O  O39  1  0.98490000  0.31210000  0.07180000  1
  O  O40  1  0.81530000  0.55590000  0.29020000  1
  O  O41  1  0.06720000  0.68040000  0.21520000  1
  O  O42  1  0.45870000  0.55050000  0.40880000  1
  O  O43  1  0.36526000  0.70684000  0.43990000  1
  O  O44  1  0.03361000  0.98261000  0.27300000  1
  O  O45  1  0.88390000  0.05670000  0.42820000  1
  O  O46  1  0.34610000  0.10550000  0.20980000  1
  O  O47  1  0.39560000  0.28240000  0.28480000  1
  O  O48  1  0.45930000  0.86750000  0.09120000  1
  O  O49  1  0.64674000  0.80516000  0.06010000  1
