# generated using pymatgen
data_PrO6
_symmetry_space_group_name_H-M   'P 1'
_cell_length_a   10.63300000
_cell_length_b   10.63300000
_cell_length_c   11.01180000
_cell_angle_alpha   78.59540000
_cell_angle_beta   62.52850000
_cell_angle_gamma   108.51100000
_symmetry_Int_Tables_number   1
_chemical_formula_structural   PrO6
_chemical_formula_sum   'Pr1 O6'
_cell_volume   955.79953008
_cell_formula_units_Z   1
loop_
 _symmetry_equiv_pos_site_id
 _symmetry_equiv_pos_as_xyz
  1  'x, y, z'
loop_
 _atom_site_type_symbol
 _atom_site_label
 _atom_site_symmetry_multiplicity
 _atom_site_fract_x
 _atom_site_fract_y
 _atom_site_fract_z
 _atom_site_occupancy
  Pr  Pr0  1  0.55016000  0.36340000  0.38024000  1
  O  O1  1  0.54130000  0.44950000  0.59120000  1
  O  O2  1  0.63474000  0.29316000  0.56010000  1
  O  O3  1  0.75561000  0.30661000  0.22700000  1
  O  O4  1  0.81530000  0.55590000  0.29020000  1
  O  O5  1  0.45870000  0.55050000  0.40880000  1
  O  O6  1  0.39560000  0.28240000  0.28480000  1
