# generated using pymatgen
data_PrO6
_symmetry_space_group_name_H-M   'P 1'
_cell_length_a   10.63300000
_cell_length_b   10.63300000
_cell_length_c   11.01180000
_cell_angle_alpha   78.59540000
_cell_angle_beta   62.52850000
_cell_angle_gamma   108.51100000
_symmetry_Int_Tables_number   1
_chemical_formula_structural   PrO6
_chemical_formula_sum   'Pr1 O6'
_cell_volume   955.79953008
_cell_formula_units_Z   1
loop_
 _symmetry_equiv_pos_site_id
 _symmetry_equiv_pos_as_xyz
  1  'x, y, z'
loop_
 _atom_site_type_symbol
 _atom_site_label
 _atom_site_symmetry_multiplicity
 _atom_site_fract_x
 _atom_site_fract_y
 _atom_site_fract_z
 _atom_site_occupancy
  Pr  Pr0  1  0.44984000  0.63660000  0.61976000  1
  O  O1  1  0.24439000  0.69339000  0.77300000  1
  O  O2  1  0.18470000  0.44410000  0.70980000  1
  O  O3  1  0.54130000  0.44950000  0.59120000  1
  O  O4  1  0.60440000  0.71760000  0.71520000  1
  O  O5  1  0.45870000  0.55050000  0.40880000  1
  O  O6  1  0.36526000  0.70684000  0.43990000  1
