# generated using pymatgen
data_PrO6
_symmetry_space_group_name_H-M   'P 1'
_cell_length_a   10.63300000
_cell_length_b   10.63300000
_cell_length_c   11.01180000
_cell_angle_alpha   78.59540000
_cell_angle_beta   62.52850000
_cell_angle_gamma   108.51100000
_symmetry_Int_Tables_number   1
_chemical_formula_structural   PrO6
_chemical_formula_sum   'Pr1 O6'
_cell_volume   955.79953008
_cell_formula_units_Z   1
loop_
 _symmetry_equiv_pos_site_id
 _symmetry_equiv_pos_as_xyz
  1  'x, y, z'
loop_
 _atom_site_type_symbol
 _atom_site_label
 _atom_site_symmetry_multiplicity
 _atom_site_fract_x
 _atom_site_fract_y
 _atom_site_fract_z
 _atom_site_occupancy
  Pr  Pr0  1  0.24364000  0.93040000  0.11976000  1
  O  O1  1  0.54070000  1.13250000  -0.09120000  1
  O  O2  1  0.35326000  1.19484000  -0.06010000  1
  O  O3  1  0.06720000  0.68040000  0.21520000  1
  O  O4  1  0.03361000  0.98261000  0.27300000  1
  O  O5  1  0.34610000  1.10550000  0.20980000  1
  O  O6  1  0.45930000  0.86750000  0.09120000  1
