# generated using pymatgen
data_Co(NO)2
_symmetry_space_group_name_H-M   'P 1'
_cell_length_a   8.14050000
_cell_length_b   10.52450000
_cell_length_c   11.42950000
_cell_angle_alpha   62.58640000
_cell_angle_beta   84.39390000
_cell_angle_gamma   77.75000000
_symmetry_Int_Tables_number   1
_chemical_formula_structural   Co(NO)2
_chemical_formula_sum   'Co1 N2 O2'
_cell_volume   849.46655401
_cell_formula_units_Z   1
loop_
 _symmetry_equiv_pos_site_id
 _symmetry_equiv_pos_as_xyz
  1  'x, y, z'
loop_
 _atom_site_type_symbol
 _atom_site_label
 _atom_site_symmetry_multiplicity
 _atom_site_fract_x
 _atom_site_fract_y
 _atom_site_fract_z
 _atom_site_occupancy
  Co  Co0  1  0.12792000  0.70780000  0.49252000  1
  N  N1  1  0.13430000  0.70310000  0.30620000  1
  N  N2  1  0.11790000  0.71100000  0.68020000  1
  O  O3  1  -0.02110000  0.91883000  0.39714000  1
  O  O4  1  0.27740000  0.49880000  0.59480000  1
