data_Mg-DOBDC\(2)
_audit_creation_date              2015-11-24
_audit_creation_method            'Materials Studio'
_symmetry_space_group_name_H-M    'P1'
_symmetry_Int_Tables_number       1
_symmetry_cell_setting            triclinic
loop_
_symmetry_equiv_pos_as_xyz
  x,y,z
_cell_length_a                    25.8765
_cell_length_b                    25.8765
_cell_length_c                    6.7856
_cell_angle_alpha                 90.0000
_cell_angle_beta                  90.0000
_cell_angle_gamma                 120.0000
loop_
_atom_site_label
_atom_site_type_symbol
_atom_site_fract_x
_atom_site_fract_y
_atom_site_fract_z
_atom_site_U_iso_or_equiv
_atom_site_adp_type
_atom_site_occupancy
Fe1    Fe    0.64159   0.68514   0.47189   0.00000  Uiso   1.00
O2     O     0.96943   0.29776   0.36038   0.00000  Uiso   1.00
O3     O     0.92763   0.23048   0.61020   0.00000  Uiso   1.00
O4     O     0.25494   0.94205   0.67383   0.00000  Uiso   1.00
C5     C     0.92667   0.24580   0.42703   0.00000  Uiso   1.00
C6     C     0.87918   0.20711   0.29083   0.00000  Uiso   1.00
C7     C     0.21254   0.88926   0.75490   0.00000  Uiso   1.00
C8     C     0.16630   0.84759   0.63558   0.00000  Uiso   1.00
H9     H     0.16529   0.85803   0.47918   0.00000  Uiso   1.00
Fe10   Fe    0.30826   0.01847   0.80522   0.00000  Uiso   1.00
O11    O     0.63610   0.63109   0.69371   0.00000  Uiso   1.00
O12    O     0.59430   0.56381   0.94353   0.00000  Uiso   1.00
O13    O     0.92161   0.27538   0.00716   0.00000  Uiso   1.00
C14    C     0.59334   0.57913   0.76036   0.00000  Uiso   1.00
C15    C     0.54585   0.54044   0.62416   0.00000  Uiso   1.00
C16    C     0.87921   0.22259   0.08823   0.00000  Uiso   1.00
C17    C     0.83297   0.18092   0.96891   0.00000  Uiso   1.00
H18    H     0.83196   0.19136   0.81251   0.00000  Uiso   1.00
Fe19   Fe    0.97492   0.35181   0.13856   0.00000  Uiso   1.00
O20    O     0.30276   0.96443   0.02705   0.00000  Uiso   1.00
O21    O     0.26096   0.89715   0.27687   0.00000  Uiso   1.00
O22    O     0.58827   0.60872   0.34050   0.00000  Uiso   1.00
C23    C     0.26000   0.91247   0.09370   0.00000  Uiso   1.00
C24    C     0.21251   0.87378   0.95750   0.00000  Uiso   1.00
C25    C     0.54587   0.55593   0.42157   0.00000  Uiso   1.00
C26    C     0.49963   0.51426   0.30225   0.00000  Uiso   1.00
H27    H     0.49862   0.52470   0.14585   0.00000  Uiso   1.00
Fe28   Fe    0.31486   0.95645   0.47189   0.00000  Uiso   1.00
O29    O     0.70224   0.67167   0.36038   0.00000  Uiso   1.00
O30    O     0.76952   0.69715   0.61020   0.00000  Uiso   1.00
O31    O     0.05795   0.31289   0.67383   0.00000  Uiso   1.00
C32    C     0.75420   0.68087   0.42703   0.00000  Uiso   1.00
C33    C     0.79289   0.67207   0.29083   0.00000  Uiso   1.00
C34    C     0.11074   0.32328   0.75490   0.00000  Uiso   1.00
C35    C     0.15241   0.31871   0.63558   0.00000  Uiso   1.00
H36    H     0.14197   0.30726   0.47918   0.00000  Uiso   1.00
Fe37   Fe    0.98153   0.28978   0.80522   0.00000  Uiso   1.00
O38    O     0.36891   0.00500   0.69371   0.00000  Uiso   1.00
O39    O     0.43619   0.03048   0.94353   0.00000  Uiso   1.00
O40    O     0.72462   0.64622   0.00716   0.00000  Uiso   1.00
C41    C     0.42087   0.01420   0.76036   0.00000  Uiso   1.00
C42    C     0.45956   0.00540   0.62416   0.00000  Uiso   1.00
C43    C     0.77741   0.65661   0.08823   0.00000  Uiso   1.00
C44    C     0.81908   0.65204   0.96891   0.00000  Uiso   1.00
H45    H     0.80864   0.64059   0.81251   0.00000  Uiso   1.00
Fe46   Fe    0.64819   0.62312   0.13856   0.00000  Uiso   1.00
O47    O     0.03557   0.33834   0.02705   0.00000  Uiso   1.00
O48    O     0.10285   0.36382   0.27687   0.00000  Uiso   1.00
O49    O     0.39128   0.97956   0.34050   0.00000  Uiso   1.00
C50    C     0.08753   0.34754   0.09370   0.00000  Uiso   1.00
C51    C     0.12622   0.33874   0.95750   0.00000  Uiso   1.00
C52    C     0.44407   0.98995   0.42157   0.00000  Uiso   1.00
C53    C     0.48574   0.98538   0.30225   0.00000  Uiso   1.00
H54    H     0.47530   0.97393   0.14585   0.00000  Uiso   1.00
Fe55   Fe    0.04355   0.35841   0.47189   0.00000  Uiso   1.00
O56    O     0.32833   0.03057   0.36038   0.00000  Uiso   1.00
O57    O     0.30285   0.07237   0.61020   0.00000  Uiso   1.00
O58    O     0.68711   0.74506   0.67383   0.00000  Uiso   1.00
C59    C     0.31913   0.07333   0.42703   0.00000  Uiso   1.00
C60    C     0.32793   0.12082   0.29083   0.00000  Uiso   1.00
C61    C     0.67672   0.78746   0.75490   0.00000  Uiso   1.00
C62    C     0.68129   0.83370   0.63558   0.00000  Uiso   1.00
H63    H     0.69274   0.83471   0.47918   0.00000  Uiso   1.00
Fe64   Fe    0.71022   0.69174   0.80522   0.00000  Uiso   1.00
O65    O     0.99500   0.36390   0.69371   0.00000  Uiso   1.00
O66    O     0.96952   0.40570   0.94353   0.00000  Uiso   1.00
O67    O     0.35378   0.07839   0.00716   0.00000  Uiso   1.00
C68    C     0.98580   0.40666   0.76036   0.00000  Uiso   1.00
C69    C     0.99460   0.45415   0.62416   0.00000  Uiso   1.00
C70    C     0.34339   0.12079   0.08823   0.00000  Uiso   1.00
C71    C     0.34796   0.16703   0.96891   0.00000  Uiso   1.00
H72    H     0.35941   0.16804   0.81251   0.00000  Uiso   1.00
Fe73   Fe    0.37688   0.02508   0.13856   0.00000  Uiso   1.00
O74    O     0.66166   0.69724   0.02705   0.00000  Uiso   1.00
O75    O     0.63618   0.73904   0.27687   0.00000  Uiso   1.00
O76    O     0.02044   0.41173   0.34050   0.00000  Uiso   1.00
C77    C     0.65246   0.74000   0.09370   0.00000  Uiso   1.00
C78    C     0.66126   0.78749   0.95750   0.00000  Uiso   1.00
C79    C     0.01005   0.45413   0.42157   0.00000  Uiso   1.00
C80    C     0.01462   0.50037   0.30225   0.00000  Uiso   1.00
H81    H     0.02607   0.50138   0.14585   0.00000  Uiso   1.00
Fe82   Fe    0.35841   0.31486   0.52811   0.00000  Uiso   1.00
O83    O     0.03057   0.70224   0.63962   0.00000  Uiso   1.00
O84    O     0.07237   0.76952   0.38980   0.00000  Uiso   1.00
O85    O     0.74506   0.05795   0.32617   0.00000  Uiso   1.00
C86    C     0.07333   0.75420   0.57297   0.00000  Uiso   1.00
C87    C     0.12082   0.79289   0.70917   0.00000  Uiso   1.00
C88    C     0.78746   0.11074   0.24510   0.00000  Uiso   1.00
C89    C     0.83370   0.15241   0.36442   0.00000  Uiso   1.00
H90    H     0.83471   0.14197   0.52082   0.00000  Uiso   1.00
Fe91   Fe    0.02508   0.64819   0.86144   0.00000  Uiso   1.00
O92    O     0.69724   0.03557   0.97295   0.00000  Uiso   1.00
O93    O     0.73904   0.10285   0.72313   0.00000  Uiso   1.00
O94    O     0.41173   0.39128   0.65950   0.00000  Uiso   1.00
C95    C     0.74000   0.08753   0.90630   0.00000  Uiso   1.00
C96    C     0.78749   0.12622   0.04250   0.00000  Uiso   1.00
C97    C     0.45413   0.44407   0.57843   0.00000  Uiso   1.00
C98    C     0.50037   0.48574   0.69775   0.00000  Uiso   1.00
H99    H     0.50138   0.47530   0.85415   0.00000  Uiso   1.00
Fe100  Fe    0.69174   0.98153   0.19478   0.00000  Uiso   1.00
O101   O     0.36390   0.36891   0.30629   0.00000  Uiso   1.00
O102   O     0.40570   0.43619   0.05647   0.00000  Uiso   1.00
O103   O     0.07839   0.72462   0.99284   0.00000  Uiso   1.00
C104   C     0.40666   0.42087   0.23964   0.00000  Uiso   1.00
C105   C     0.45415   0.45956   0.37584   0.00000  Uiso   1.00
C106   C     0.12079   0.77741   0.91177   0.00000  Uiso   1.00
C107   C     0.16703   0.81908   0.03109   0.00000  Uiso   1.00
H108   H     0.16804   0.80864   0.18749   0.00000  Uiso   1.00
Fe109  Fe    0.68514   0.04355   0.52811   0.00000  Uiso   1.00
O110   O     0.29776   0.32833   0.63962   0.00000  Uiso   1.00
O111   O     0.23048   0.30285   0.38980   0.00000  Uiso   1.00
O112   O     0.94205   0.68711   0.32617   0.00000  Uiso   1.00
C113   C     0.24580   0.31913   0.57297   0.00000  Uiso   1.00
C114   C     0.20711   0.32793   0.70917   0.00000  Uiso   1.00
C115   C     0.88926   0.67672   0.24510   0.00000  Uiso   1.00
C116   C     0.84759   0.68129   0.36442   0.00000  Uiso   1.00
H117   H     0.85803   0.69274   0.52082   0.00000  Uiso   1.00
Fe118  Fe    0.35181   0.37688   0.86144   0.00000  Uiso   1.00
O119   O     0.96443   0.66166   0.97295   0.00000  Uiso   1.00
O120   O     0.89715   0.63618   0.72313   0.00000  Uiso   1.00
O121   O     0.60872   0.02044   0.65950   0.00000  Uiso   1.00
C122   C     0.91247   0.65246   0.90630   0.00000  Uiso   1.00
C123   C     0.87378   0.66126   0.04250   0.00000  Uiso   1.00
C124   C     0.55593   0.01005   0.57843   0.00000  Uiso   1.00
C125   C     0.51426   0.01462   0.69775   0.00000  Uiso   1.00
H126   H     0.52470   0.02607   0.85415   0.00000  Uiso   1.00
Fe127  Fe    0.01847   0.71022   0.19478   0.00000  Uiso   1.00
O128   O     0.63109   0.99500   0.30629   0.00000  Uiso   1.00
O129   O     0.56381   0.96952   0.05647   0.00000  Uiso   1.00
O130   O     0.27538   0.35378   0.99284   0.00000  Uiso   1.00
C131   C     0.57913   0.98580   0.23964   0.00000  Uiso   1.00
C132   C     0.54044   0.99460   0.37584   0.00000  Uiso   1.00
C133   C     0.22259   0.34339   0.91177   0.00000  Uiso   1.00
C134   C     0.18092   0.34796   0.03109   0.00000  Uiso   1.00
H135   H     0.19136   0.35941   0.18749   0.00000  Uiso   1.00
Fe136  Fe    0.95645   0.64159   0.52811   0.00000  Uiso   1.00
O137   O     0.67167   0.96943   0.63962   0.00000  Uiso   1.00
O138   O     0.69715   0.92763   0.38980   0.00000  Uiso   1.00
O139   O     0.31289   0.25494   0.32617   0.00000  Uiso   1.00
C140   C     0.68087   0.92667   0.57297   0.00000  Uiso   1.00
C141   C     0.67207   0.87918   0.70917   0.00000  Uiso   1.00
C142   C     0.32328   0.21254   0.24510   0.00000  Uiso   1.00
C143   C     0.31871   0.16630   0.36442   0.00000  Uiso   1.00
H144   H     0.30726   0.16529   0.52082   0.00000  Uiso   1.00
Fe145  Fe    0.62312   0.97492   0.86144   0.00000  Uiso   1.00
O146   O     0.33834   0.30276   0.97295   0.00000  Uiso   1.00
O147   O     0.36382   0.26096   0.72313   0.00000  Uiso   1.00
O148   O     0.97956   0.58827   0.65950   0.00000  Uiso   1.00
C149   C     0.34754   0.26000   0.90630   0.00000  Uiso   1.00
C150   C     0.33874   0.21251   0.04250   0.00000  Uiso   1.00
C151   C     0.98995   0.54587   0.57843   0.00000  Uiso   1.00
C152   C     0.98538   0.49963   0.69775   0.00000  Uiso   1.00
H153   H     0.97393   0.49862   0.85415   0.00000  Uiso   1.00
Fe154  Fe    0.28978   0.30826   0.19478   0.00000  Uiso   1.00
O155   O     0.00500   0.63610   0.30629   0.00000  Uiso   1.00
O156   O     0.03048   0.59430   0.05647   0.00000  Uiso   1.00
O157   O     0.64622   0.92161   0.99284   0.00000  Uiso   1.00
C158   C     0.01420   0.59334   0.23964   0.00000  Uiso   1.00
C159   C     0.00540   0.54585   0.37584   0.00000  Uiso   1.00
C160   C     0.65661   0.87921   0.91177   0.00000  Uiso   1.00
C161   C     0.65204   0.83297   0.03109   0.00000  Uiso   1.00
H162   H     0.64059   0.83196   0.18749   0.00000  Uiso   1.00
