# generated using pymatgen
data_H7C5NO4
_symmetry_space_group_name_H-M   'P 1'
_cell_length_a   7.28600000
_cell_length_b   10.79000000
_cell_length_c   11.61000000
_cell_angle_alpha   90.00000000
_cell_angle_beta   90.00000000
_cell_angle_gamma   90.00000000
_symmetry_Int_Tables_number   1
_chemical_formula_structural   H7C5NO4
_chemical_formula_sum   'H28 C20 N4 O16'
_cell_volume   912.73106340
_cell_formula_units_Z   4
loop_
 _symmetry_equiv_pos_site_id
 _symmetry_equiv_pos_as_xyz
  1  'x, y, z'
loop_
 _atom_site_type_symbol
 _atom_site_label
 _atom_site_symmetry_multiplicity
 _atom_site_fract_x
 _atom_site_fract_y
 _atom_site_fract_z
 _atom_site_occupancy
  H  H0  1  0.06550000  0.20140000  0.55870000  1
  H  H1  1  0.93640000  0.09930000  0.60660000  1
  H  H2  1  0.08980000  0.97140000  0.51540000  1
  H  H3  1  0.38330000  0.01170000  0.43010000  1
  H  H4  1  0.23640000  0.13320000  0.40620000  1
  H  H5  1  0.38430000  0.24930000  0.55680000  1
  H  H6  1  0.53070000  0.12770000  0.58130000  1
  H  H7  1  0.56550000  0.79860000  0.94130000  1
  H  H8  1  0.43640000  0.90070000  0.89340000  1
  H  H9  1  0.58980000  0.02860000  0.98460000  1
  H  H10  1  0.88330000  0.98830000  0.06990000  1
  H  H11  1  0.73640000  0.86680000  0.09380000  1
  H  H12  1  0.88430000  0.75070000  0.94320000  1
  H  H13  1  0.03070000  0.87230000  0.91870000  1
  H  H14  1  0.43450000  0.70140000  0.44130000  1
  H  H15  1  0.56360000  0.59930000  0.39340000  1
  H  H16  1  0.41020000  0.47140000  0.48460000  1
  H  H17  1  0.11670000  0.51170000  0.56990000  1
  H  H18  1  0.26360000  0.63320000  0.59380000  1
  H  H19  1  0.11570000  0.74930000  0.44320000  1
  H  H20  1  0.96930000  0.62770000  0.41870000  1
  H  H21  1  0.93450000  0.29860000  0.05870000  1
  H  H22  1  0.06360000  0.40070000  0.10660000  1
  H  H23  1  0.91020000  0.52860000  0.01540000  1
  H  H24  1  0.61670000  0.48830000  0.93010000  1
  H  H25  1  0.76360000  0.36680000  0.90620000  1
  H  H26  1  0.61570000  0.25070000  0.05680000  1
  H  H27  1  0.46930000  0.37230000  0.08130000  1
  C  C28  1  0.18050000  0.03260000  0.55670000  1
  C  C29  1  0.28530000  0.96310000  0.64980000  1
  C  C30  1  0.31300000  0.08570000  0.46890000  1
  C  C31  1  0.45460000  0.17510000  0.51840000  1
  C  C32  1  0.58740000  0.22750000  0.43080000  1
  C  C33  1  0.68050000  0.96740000  0.94330000  1
  C  C34  1  0.78530000  0.03690000  0.85020000  1
  C  C35  1  0.81300000  0.91430000  0.03110000  1
  C  C36  1  0.95460000  0.82490000  0.98160000  1
  C  C37  1  0.08740000  0.77250000  0.06920000  1
  C  C38  1  0.31950000  0.53260000  0.44330000  1
  C  C39  1  0.21470000  0.46310000  0.35020000  1
  C  C40  1  0.18700000  0.58570000  0.53110000  1
  C  C41  1  0.04540000  0.67510000  0.48160000  1
  C  C42  1  0.91260000  0.72750000  0.56920000  1
  C  C43  1  0.81950000  0.46740000  0.05670000  1
  C  C44  1  0.71470000  0.53690000  0.14980000  1
  C  C45  1  0.68700000  0.41430000  0.96890000  1
  C  C46  1  0.54540000  0.32490000  0.01840000  1
  C  C47  1  0.41260000  0.27250000  0.93080000  1
  N  N48  1  0.05880000  0.12960000  0.60600000  1
  N  N49  1  0.55880000  0.87040000  0.89400000  1
  N  N50  1  0.44120000  0.62960000  0.39400000  1
  N  N51  1  0.94120000  0.37040000  0.10600000  1
  O  O52  1  0.27870000  0.99810000  0.75310000  1
  O  O53  1  0.38260000  0.87290000  0.61450000  1
  O  O54  1  0.72430000  0.28800000  0.46920000  1
  O  O55  1  0.56510000  0.21300000  0.32480000  1
  O  O56  1  0.77870000  0.00190000  0.74690000  1
  O  O57  1  0.88260000  0.12710000  0.88550000  1
  O  O58  1  0.22430000  0.71200000  0.03080000  1
  O  O59  1  0.06510000  0.78700000  0.17520000  1
  O  O60  1  0.22130000  0.49810000  0.24690000  1
  O  O61  1  0.11740000  0.37290000  0.38550000  1
  O  O62  1  0.77570000  0.78800000  0.53080000  1
  O  O63  1  0.93490000  0.71300000  0.67520000  1
  O  O64  1  0.72130000  0.50190000  0.25310000  1
  O  O65  1  0.61740000  0.62710000  0.11450000  1
  O  O66  1  0.27570000  0.21200000  0.96920000  1
  O  O67  1  0.43490000  0.28700000  0.82480000  1
