# generated using pymatgen
data_CdNO4
_symmetry_space_group_name_H-M   'P 1'
_cell_length_a   7.28600000
_cell_length_b   10.79000000
_cell_length_c   11.61000000
_cell_angle_alpha   90.00000000
_cell_angle_beta   90.00000000
_cell_angle_gamma   90.00000000
_symmetry_Int_Tables_number   1
_chemical_formula_structural   CdNO4
_chemical_formula_sum   'Cd1 N1 O4'
_cell_volume   912.73106340
_cell_formula_units_Z   1
loop_
 _symmetry_equiv_pos_site_id
 _symmetry_equiv_pos_as_xyz
  1  'x, y, z'
loop_
 _atom_site_type_symbol
 _atom_site_label
 _atom_site_symmetry_multiplicity
 _atom_site_fract_x
 _atom_site_fract_y
 _atom_site_fract_z
 _atom_site_occupancy
  Cd  Cd0  1  0.36090000  0.68360000  0.20910000  1
  N  N1  1  0.44120000  0.62960000  0.39400000  1
  O  O2  1  0.22430000  0.71200000  0.03080000  1
  O  O3  1  0.06510000  0.78700000  0.17520000  1
  O  O4  1  0.22130000  0.49810000  0.24690000  1
  O  O5  1  0.61740000  0.62710000  0.11450000  1
