# generated using pymatgen
data_CdNO4
_symmetry_space_group_name_H-M   'P 1'
_cell_length_a   7.28600000
_cell_length_b   10.79000000
_cell_length_c   11.61000000
_cell_angle_alpha   90.00000000
_cell_angle_beta   90.00000000
_cell_angle_gamma   90.00000000
_symmetry_Int_Tables_number   1
_chemical_formula_structural   CdNO4
_chemical_formula_sum   'Cd1 N1 O4'
_cell_volume   912.73106340
_cell_formula_units_Z   1
loop_
 _symmetry_equiv_pos_site_id
 _symmetry_equiv_pos_as_xyz
  1  'x, y, z'
loop_
 _atom_site_type_symbol
 _atom_site_label
 _atom_site_symmetry_multiplicity
 _atom_site_fract_x
 _atom_site_fract_y
 _atom_site_fract_z
 _atom_site_occupancy
  Cd  Cd0  1  0.86090000  0.31640000  0.29090000  1
  N  N1  1  0.94120000  0.37040000  0.10600000  1
  O  O2  1  0.72430000  0.28800000  0.46920000  1
  O  O3  1  0.56510000  0.21300000  0.32480000  1
  O  O4  1  1.11740000  0.37290000  0.38550000  1
  O  O5  1  0.72130000  0.50190000  0.25310000  1
