# generated using pymatgen
data_CdNO4
_symmetry_space_group_name_H-M   'P 1'
_cell_length_a   7.28600000
_cell_length_b   10.79000000
_cell_length_c   11.61000000
_cell_angle_alpha   90.00000000
_cell_angle_beta   90.00000000
_cell_angle_gamma   90.00000000
_symmetry_Int_Tables_number   1
_chemical_formula_structural   CdNO4
_chemical_formula_sum   'Cd1 N1 O4'
_cell_volume   912.73106340
_cell_formula_units_Z   1
loop_
 _symmetry_equiv_pos_site_id
 _symmetry_equiv_pos_as_xyz
  1  'x, y, z'
loop_
 _atom_site_type_symbol
 _atom_site_label
 _atom_site_symmetry_multiplicity
 _atom_site_fract_x
 _atom_site_fract_y
 _atom_site_fract_z
 _atom_site_occupancy
  Cd  Cd0  1  0.63910000  0.81640000  0.70910000  1
  N  N1  1  0.55880000  0.87040000  0.89400000  1
  O  O2  1  0.38260000  0.87290000  0.61450000  1
  O  O3  1  0.77870000  1.00190000  0.74690000  1
  O  O4  1  0.77570000  0.78800000  0.53080000  1
  O  O5  1  0.93490000  0.71300000  0.67520000  1
