# generated using pymatgen
data_CuN2O3
_symmetry_space_group_name_H-M   'P 1'
_cell_length_a   5.11860000
_cell_length_b   11.32540000
_cell_length_c   12.57660000
_cell_angle_alpha   92.02930000
_cell_angle_beta   101.74200000
_cell_angle_gamma   79.97900000
_symmetry_Int_Tables_number   1
_chemical_formula_structural   CuN2O3
_chemical_formula_sum   'Cu1 N2 O3'
_cell_volume   702.92149491
_cell_formula_units_Z   1
loop_
 _symmetry_equiv_pos_site_id
 _symmetry_equiv_pos_as_xyz
  1  'x, y, z'
loop_
 _atom_site_type_symbol
 _atom_site_label
 _atom_site_symmetry_multiplicity
 _atom_site_fract_x
 _atom_site_fract_y
 _atom_site_fract_z
 _atom_site_occupancy
  Cu  Cu0  1  0.05564000  0.78349000  0.22594000  1
  N  N1  1  -0.03213000  0.89350000  0.34754000  1
  N  N2  1  0.15953000  0.66610000  0.11086000  1
  O  O3  1  0.30285000  0.68310000  0.34350000  1
  O  O4  1  -0.23704000  0.87390000  0.11832000  1
  O  O5  1  0.40967000  0.87630000  0.19954000  1
