# generated using pymatgen
data_H4C6NO2
_symmetry_space_group_name_H-M   'P 1'
_cell_length_a   5.11860000
_cell_length_b   11.32540000
_cell_length_c   12.57660000
_cell_angle_alpha   92.02930000
_cell_angle_beta   101.74200000
_cell_angle_gamma   79.97900000
_symmetry_Int_Tables_number   1
_chemical_formula_structural   H4C6NO2
_chemical_formula_sum   'H16 C24 N4 O8'
_cell_volume   702.92149491
_cell_formula_units_Z   4
loop_
 _symmetry_equiv_pos_site_id
 _symmetry_equiv_pos_as_xyz
  1  'x, y, z'
loop_
 _atom_site_type_symbol
 _atom_site_label
 _atom_site_symmetry_multiplicity
 _atom_site_fract_x
 _atom_site_fract_y
 _atom_site_fract_z
 _atom_site_occupancy
  H  H0  1  0.87250000  0.50700000  0.66280000  1
  H  H1  1  0.65270000  0.62200000  0.51220000  1
  H  H2  1  0.09250000  0.40560000  0.45920000  1
  H  H3  1  0.32420000  0.29720000  0.61180000  1
  H  H4  1  0.33490000  0.10780000  0.80720000  1
  H  H5  1  0.59700000  0.96920000  0.93240000  1
  H  H6  1  0.04850000  0.05650000  0.12340000  1
  H  H7  1  0.81030000  0.19750000  0.99700000  1
  H  H8  1  0.20970000  0.00700000  0.33720000  1
  H  H9  1  0.14050000  0.12200000  0.48780000  1
  H  H10  1  0.63330000  0.90560000  0.54080000  1
  H  H11  1  0.71240000  0.79720000  0.38820000  1
  H  H12  1  0.52770000  0.60780000  0.19280000  1
  H  H13  1  0.66460000  0.46920000  0.06760000  1
  H  H14  1  0.92510000  0.55650000  0.87660000  1
  H  H15  1  0.81330000  0.69750000  0.00300000  1
  C  C16  1  0.71173000  0.48680000  0.62126000  1
  C  C17  1  0.58242000  0.55590000  0.53064000  1
  C  C18  1  0.34821000  0.52590000  0.46802000  1
  C  C19  1  0.25182000  0.42790000  0.49984000  1
  C  C20  1  0.39057000  0.36350000  0.59134000  1
  C  C21  1  0.19437000  0.59810000  0.36834000  1
  C  C22  1  0.27800000  0.09810000  0.87240000  1
  C  C23  1  0.43535000  0.01410000  0.94670000  1
  C  C24  1  0.35199000  0.99660000  0.04298000  1
  C  C25  1  0.11261000  0.06630000  0.05982000  1
  C  C26  1  0.96966000  0.14970000  0.98332000  1
  C  C27  1  0.51685000  0.90840000  0.12790000  1
  C  C28  1  0.09047000  0.98680000  0.37874000  1
  C  C29  1  0.05178000  0.05590000  0.46936000  1
  C  C30  1  0.88019000  0.02590000  0.53198000  1
  C  C31  1  0.75198000  0.92790000  0.50016000  1
  C  C32  1  0.79923000  0.86350000  0.40866000  1
  C  C33  1  0.82603000  0.09810000  0.63166000  1
  C  C34  1  0.40560000  0.59810000  0.12760000  1
  C  C35  1  0.48865000  0.51410000  0.05330000  1
  C  C36  1  0.30901000  0.49660000  0.95702000  1
  C  C37  1  0.05279000  0.56630000  0.94018000  1
  C  C38  1  0.98634000  0.64970000  0.01668000  1
  C  C39  1  0.38895000  0.40840000  0.87210000  1
  N  N40  1  0.62033000  0.39350000  0.65246000  1
  N  N41  1  0.04867000  0.16610000  0.88914000  1
  N  N42  1  0.96787000  0.89350000  0.34754000  1
  N  N43  1  0.15953000  0.66610000  0.11086000  1
  O  O44  1  0.30285000  0.68310000  0.34350000  1
  O  O45  1  0.97605000  0.57230000  0.32010000  1
  O  O46  1  0.76296000  0.87390000  0.11832000  1
  O  O47  1  0.40967000  0.87630000  0.19954000  1
  O  O48  1  0.95935000  0.18310000  0.65650000  1
  O  O49  1  0.65595000  0.07230000  0.67990000  1
  O  O50  1  0.64464000  0.37390000  0.88168000  1
  O  O51  1  0.21013000  0.37630000  0.80046000  1
