# generated using pymatgen
data_C6O7
_symmetry_space_group_name_H-M   'P 1'
_cell_length_a   8.29650000
_cell_length_b   8.58330000
_cell_length_c   9.87600000
_cell_angle_alpha   96.56400000
_cell_angle_beta   102.93800000
_cell_angle_gamma   94.19900000
_symmetry_Int_Tables_number   1
_chemical_formula_structural   C6O7
_chemical_formula_sum   'C12 O14'
_cell_volume   677.38028728
_cell_formula_units_Z   2
loop_
 _symmetry_equiv_pos_site_id
 _symmetry_equiv_pos_as_xyz
  1  'x, y, z'
loop_
 _atom_site_type_symbol
 _atom_site_label
 _atom_site_symmetry_multiplicity
 _atom_site_fract_x
 _atom_site_fract_y
 _atom_site_fract_z
 _atom_site_occupancy
  C  C0  1  0.39940000  0.85600000  0.47450000  1
  C  C1  1  0.28870000  0.70280000  0.45140000  1
  C  C2  1  0.39590000  0.95030000  0.36800000  1
  C  C3  1  0.27570000  0.90650000  0.22660000  1
  C  C4  1  0.50270000  0.90770000  0.60750000  1
  C  C5  1  0.50420000  0.81020000  0.72610000  1
  C  C6  1  0.60060000  0.14400000  0.52550000  1
  C  C7  1  0.71130000  0.29720000  0.54860000  1
  C  C8  1  0.60410000  0.04970000  0.63200000  1
  C  C9  1  0.72430000  0.09350000  0.77340000  1
  C  C10  1  0.49730000  0.09230000  0.39250000  1
  C  C11  1  0.49580000  0.18980000  0.27390000  1
  O  O12  1  0.17720000  0.69540000  0.51770000  1
  O  O13  1  0.31320000  0.59120000  0.36810000  1
  O  O14  1  0.28280000  0.77820000  0.15360000  1
  O  O15  1  0.17330000  0.00160000  0.19170000  1
  O  O16  1  0.52790000  0.66780000  0.70040000  1
  O  O17  1  0.48560000  0.87580000  0.83750000  1
  O  O18  1  0.43140000  0.62100000  0.95250000  1
  O  O19  1  0.82280000  0.30460000  0.48230000  1
  O  O20  1  0.68680000  0.40880000  0.63190000  1
  O  O21  1  0.71720000  0.22180000  0.84640000  1
  O  O22  1  0.82670000  0.99840000  0.80830000  1
  O  O23  1  0.47210000  0.33220000  0.29960000  1
  O  O24  1  0.51440000  0.12420000  0.16250000  1
  O  O25  1  0.56860000  0.37900000  0.04750000  1
