# generated using pymatgen
data_Eu
_symmetry_space_group_name_H-M   'P 1'
_cell_length_a   9.34100000
_cell_length_b   9.84900000
_cell_length_c   11.42200000
_cell_angle_alpha   94.07600000
_cell_angle_beta   98.57700000
_cell_angle_gamma   110.92700000
_symmetry_Int_Tables_number   1
_chemical_formula_structural   Eu
_chemical_formula_sum   Eu2
_cell_volume   961.68914895
_cell_formula_units_Z   2
loop_
 _symmetry_equiv_pos_site_id
 _symmetry_equiv_pos_as_xyz
  1  'x, y, z'
loop_
 _atom_site_type_symbol
 _atom_site_label
 _atom_site_symmetry_multiplicity
 _atom_site_fract_x
 _atom_site_fract_y
 _atom_site_fract_z
 _atom_site_occupancy
  Eu  Eu0  1  0.71801000  0.45464000  0.01471000  1
  Eu  Eu1  1  0.28199000  0.54536000  0.98529000  1
