# generated using pymatgen
data_H7C15O7
_symmetry_space_group_name_H-M   'P 1'
_cell_length_a   9.34100000
_cell_length_b   9.84900000
_cell_length_c   11.42200000
_cell_angle_alpha   94.07600000
_cell_angle_beta   98.57700000
_cell_angle_gamma   110.92700000
_symmetry_Int_Tables_number   1
_chemical_formula_structural   H7C15O7
_chemical_formula_sum   'H14 C30 O14'
_cell_volume   961.68914895
_cell_formula_units_Z   2
loop_
 _symmetry_equiv_pos_site_id
 _symmetry_equiv_pos_as_xyz
  1  'x, y, z'
loop_
 _atom_site_type_symbol
 _atom_site_label
 _atom_site_symmetry_multiplicity
 _atom_site_fract_x
 _atom_site_fract_y
 _atom_site_fract_z
 _atom_site_occupancy
  H  H0  1  0.06550000  0.60420000  0.42290000  1
  H  H1  1  0.15440000  0.72850000  0.61590000  1
  H  H2  1  0.82290000  0.89780000  0.56860000  1
  H  H3  1  0.73130000  0.77310000  0.38030000  1
  H  H4  1  0.07960000  0.13900000  0.83540000  1
  H  H5  1  0.67950000  0.00300000  0.96190000  1
  H  H6  1  0.80410000  0.71190000  0.77930000  1
  H  H7  1  0.93450000  0.39580000  0.57710000  1
  H  H8  1  0.84560000  0.27150000  0.38410000  1
  H  H9  1  0.17710000  0.10220000  0.43140000  1
  H  H10  1  0.26870000  0.22690000  0.61970000  1
  H  H11  1  0.92040000  0.86100000  0.16460000  1
  H  H12  1  0.32050000  0.99700000  0.03810000  1
  H  H13  1  0.19590000  0.28810000  0.22070000  1
  C  C14  1  0.82430000  0.58830000  0.26000000  1
  C  C15  1  0.88590000  0.67260000  0.38040000  1
  C  C16  1  0.01510000  0.66160000  0.45240000  1
  C  C17  1  0.06880000  0.73660000  0.56810000  1
  C  C18  1  0.99650000  0.82120000  0.61120000  1
  C  C19  1  0.87000000  0.83710000  0.53960000  1
  C  C20  1  0.81640000  0.76320000  0.42730000  1
  C  C21  1  0.95290000  0.92130000  0.79210000  1
  C  C22  1  0.98880000  0.06410000  0.84440000  1
  C  C23  1  0.88800000  0.09330000  0.90990000  1
  C  C24  1  0.75040000  0.98170000  0.92210000  1
  C  C25  1  0.72020000  0.83800000  0.87420000  1
  C  C26  1  0.82290000  0.80790000  0.81000000  1
  C  C27  1  0.92240000  0.24700000  0.96730000  1
  C  C28  1  0.57990000  0.71800000  0.89760000  1
  C  C29  1  0.17570000  0.41170000  0.74000000  1
  C  C30  1  0.11410000  0.32740000  0.61960000  1
  C  C31  1  0.98490000  0.33840000  0.54760000  1
  C  C32  1  0.93120000  0.26340000  0.43190000  1
  C  C33  1  0.00350000  0.17880000  0.38880000  1
  C  C34  1  0.13000000  0.16290000  0.46040000  1
  C  C35  1  0.18360000  0.23680000  0.57270000  1
  C  C36  1  0.04710000  0.07870000  0.20790000  1
  C  C37  1  0.01120000  0.93590000  0.15560000  1
  C  C38  1  0.11200000  0.90670000  0.09010000  1
  C  C39  1  0.24960000  0.01830000  0.07790000  1
  C  C40  1  0.27980000  0.16200000  0.12580000  1
  C  C41  1  0.17710000  0.19210000  0.19000000  1
  C  C42  1  0.07760000  0.75300000  0.03270000  1
  C  C43  1  0.42010000  0.28200000  0.10240000  1
  O  O44  1  0.71520000  0.61020000  0.19200000  1
  O  O45  1  0.87940000  0.49700000  0.22260000  1
  O  O46  1  0.81740000  0.27070000  0.01070000  1
  O  O47  1  0.05500000  0.34100000  0.96820000  1
  O  O48  1  0.45290000  0.73810000  0.88880000  1
  O  O49  1  0.58990000  0.60050000  0.92550000  1
  O  O50  1  0.05630000  0.89490000  0.72620000  1
  O  O51  1  0.28480000  0.38980000  0.80800000  1
  O  O52  1  0.12060000  0.50300000  0.77740000  1
  O  O53  1  0.18260000  0.72930000  0.98930000  1
  O  O54  1  0.94500000  0.65900000  0.03180000  1
  O  O55  1  0.54710000  0.26190000  0.11120000  1
  O  O56  1  0.41010000  0.39950000  0.07450000  1
  O  O57  1  0.94370000  0.10510000  0.27380000  1
