# generated using pymatgen
data_GaO4
_symmetry_space_group_name_H-M   'P 1'
_cell_length_a   5.09960000
_cell_length_b   21.25950000
_cell_length_c   8.92090000
_cell_angle_alpha   90.00000000
_cell_angle_beta   90.23940000
_cell_angle_gamma   90.00000000
_symmetry_Int_Tables_number   1
_chemical_formula_structural   GaO4
_chemical_formula_sum   'Ga1 O4'
_cell_volume   967.15045107
_cell_formula_units_Z   1
loop_
 _symmetry_equiv_pos_site_id
 _symmetry_equiv_pos_as_xyz
  1  'x, y, z'
loop_
 _atom_site_type_symbol
 _atom_site_label
 _atom_site_symmetry_multiplicity
 _atom_site_fract_x
 _atom_site_fract_y
 _atom_site_fract_z
 _atom_site_occupancy
  Ga  Ga0  1  0.31530000  0.25000000  0.24392000  1
  O  O1  1  0.26380000  0.32270000  0.34900000  1
  O  O2  1  0.26380000  0.17730000  0.34900000  1
  O  O3  1  0.66760000  0.25000000  0.21090000  1
  O  O4  1  0.10260000  0.25000000  0.07860000  1
