# generated using pymatgen
data_Al(O2F)2
_symmetry_space_group_name_H-M   'P 1'
_cell_length_a   9.34290000
_cell_length_b   9.34290000
_cell_length_c   6.99270000
_cell_angle_alpha   90.00000000
_cell_angle_beta   90.00000000
_cell_angle_gamma   120.00000000
_symmetry_Int_Tables_number   1
_chemical_formula_structural   Al(O2F)2
_chemical_formula_sum   'Al1 O4 F2'
_cell_volume   528.61432656
_cell_formula_units_Z   1
loop_
 _symmetry_equiv_pos_site_id
 _symmetry_equiv_pos_as_xyz
  1  'x, y, z'
loop_
 _atom_site_type_symbol
 _atom_site_label
 _atom_site_symmetry_multiplicity
 _atom_site_fract_x
 _atom_site_fract_y
 _atom_site_fract_z
 _atom_site_occupancy
  Al  Al0  1  0.47892000  0.64105000  0.88953000  1
  O  O1  1  0.42870000  0.69850000  1.12630000  1
  O  O2  1  0.57290000  0.85150000  0.79250000  1
  O  O3  1  0.26980000  0.57130000  0.79297000  1
  O  O4  1  0.53290000  0.56580000  0.66947000  1
  F  F5  1  0.68220000  0.68220000  1.00000000  1
  F  F6  1  0.43180000  0.43180000  1.00000000  1
