# generated using pymatgen
data_PH2(O3F)2
_symmetry_space_group_name_H-M   'P 1'
_cell_length_a   9.34290000
_cell_length_b   9.34290000
_cell_length_c   6.99270000
_cell_angle_alpha   90.00000000
_cell_angle_beta   90.00000000
_cell_angle_gamma   120.00000000
_symmetry_Int_Tables_number   1
_chemical_formula_structural   PH2(O3F)2
_chemical_formula_sum   'P3 H6 O18 F6'
_cell_volume   528.61432656
_cell_formula_units_Z   3
loop_
 _symmetry_equiv_pos_site_id
 _symmetry_equiv_pos_as_xyz
  1  'x, y, z'
loop_
 _atom_site_type_symbol
 _atom_site_label
 _atom_site_symmetry_multiplicity
 _atom_site_fract_x
 _atom_site_fract_y
 _atom_site_fract_z
 _atom_site_occupancy
  P  P0  1  0.55067000  0.00000000  0.83333000  1
  P  P1  1  0.00000000  0.55067000  0.16667000  1
  P  P2  1  0.44933000  0.44933000  0.50000000  1
  H  H3  1  0.45060000  0.64600000  0.22950000  1
  H  H4  1  0.35400000  0.80460000  0.56283000  1
  H  H5  1  0.19540000  0.54940000  0.89617000  1
  H  H6  1  0.64600000  0.45060000  0.77050000  1
  H  H7  1  0.80460000  0.35400000  0.43717000  1
  H  H8  1  0.54940000  0.19540000  0.10383000  1
  O  O9  1  0.42870000  0.69850000  0.12630000  1
  O  O10  1  0.57290000  0.85150000  0.79250000  1
  O  O11  1  0.43420000  0.96710000  0.00280000  1
  O  O12  1  0.30150000  0.73020000  0.45963000  1
  O  O13  1  0.14850000  0.72140000  0.12583000  1
  O  O14  1  0.03290000  0.46710000  0.33613000  1
  O  O15  1  0.26980000  0.57130000  0.79297000  1
  O  O16  1  0.27860000  0.42710000  0.45917000  1
  O  O17  1  0.53290000  0.56580000  0.66947000  1
  O  O18  1  0.69850000  0.42870000  0.87370000  1
  O  O19  1  0.85150000  0.57290000  0.20750000  1
  O  O20  1  0.96710000  0.43420000  0.99720000  1
  O  O21  1  0.73020000  0.30150000  0.54037000  1
  O  O22  1  0.72140000  0.14850000  0.87417000  1
  O  O23  1  0.46710000  0.03290000  0.66387000  1
  O  O24  1  0.57130000  0.26980000  0.20703000  1
  O  O25  1  0.42710000  0.27860000  0.54083000  1
  O  O26  1  0.56580000  0.53290000  0.33053000  1
  F  F27  1  0.68220000  0.68220000  0.00000000  1
  F  F28  1  0.43180000  0.43180000  0.00000000  1
  F  F29  1  0.31780000  0.00000000  0.33333333  1
  F  F30  1  0.56820000  0.00000000  0.33333333  1
  F  F31  1  0.00000000  0.31780000  0.66666667  1
  F  F32  1  0.00000000  0.56820000  0.66666667  1
