# generated using pymatgen
data_CoO4
_symmetry_space_group_name_H-M   'P 1'
_cell_length_a   7.02000000
_cell_length_b   8.22700000
_cell_length_c   8.52920000
_cell_angle_alpha   113.30800000
_cell_angle_beta   114.30100000
_cell_angle_gamma   90.00000000
_symmetry_Int_Tables_number   1
_chemical_formula_structural   CoO4
_chemical_formula_sum   'Co1 O4'
_cell_volume   404.43085569
_cell_formula_units_Z   1
loop_
 _symmetry_equiv_pos_site_id
 _symmetry_equiv_pos_as_xyz
  1  'x, y, z'
loop_
 _atom_site_type_symbol
 _atom_site_label
 _atom_site_symmetry_multiplicity
 _atom_site_fract_x
 _atom_site_fract_y
 _atom_site_fract_z
 _atom_site_occupancy
  Co  Co0  1  0.00000000  0.50000000  0.50000000  1
  O  O1  1  -0.20656000  0.25640000  0.27874000  1
  O  O2  1  0.22442000  0.34046000  0.58022000  1
  O  O3  1  0.20656000  0.74360000  0.72126000  1
  O  O4  1  -0.22442000  0.65954000  0.41978000  1
