# generated using pymatgen
data_H2C2N
_symmetry_space_group_name_H-M   'P 1'
_cell_length_a   6.86530000
_cell_length_b   6.86530000
_cell_length_c   6.95000000
_cell_angle_alpha   90.00000000
_cell_angle_beta   90.00000000
_cell_angle_gamma   90.00000000
_symmetry_Int_Tables_number   1
_chemical_formula_structural   H2C2N
_chemical_formula_sum   'H8 C8 N4'
_cell_volume   327.56979143
_cell_formula_units_Z   4
loop_
 _symmetry_equiv_pos_site_id
 _symmetry_equiv_pos_as_xyz
  1  'x, y, z'
loop_
 _atom_site_type_symbol
 _atom_site_label
 _atom_site_symmetry_multiplicity
 _atom_site_fract_x
 _atom_site_fract_y
 _atom_site_fract_z
 _atom_site_occupancy
  H  H0  1  0.83280000  0.50000000  0.22110000  1
  H  H1  1  0.16720000  0.50000000  0.22110000  1
  H  H2  1  0.50000000  0.83280000  0.22110000  1
  H  H3  1  0.50000000  0.16720000  0.22110000  1
  H  H4  1  0.16720000  0.50000000  0.77890000  1
  H  H5  1  0.83280000  0.50000000  0.77890000  1
  H  H6  1  0.50000000  0.83280000  0.77890000  1
  H  H7  1  0.50000000  0.16720000  0.77890000  1
  C  C8  1  0.89890000  0.50000000  0.33790000  1
  C  C9  1  0.10110000  0.50000000  0.33790000  1
  C  C10  1  0.50000000  0.89890000  0.33790000  1
  C  C11  1  0.50000000  0.10110000  0.33790000  1
  C  C12  1  0.10110000  0.50000000  0.66210000  1
  C  C13  1  0.89890000  0.50000000  0.66210000  1
  C  C14  1  0.50000000  0.89890000  0.66210000  1
  C  C15  1  0.50000000  0.10110000  0.66210000  1
  N  N16  1  0.79800000  0.50000000  0.50000000  1
  N  N17  1  0.20200000  0.50000000  0.50000000  1
  N  N18  1  0.50000000  0.79800000  0.50000000  1
  N  N19  1  0.50000000  0.20200000  0.50000000  1
