# generated using pymatgen
data_H2C2N
_symmetry_space_group_name_H-M   'P 1'
_cell_length_a   9.73250000
_cell_length_b   9.73250000
_cell_length_c   8.21540000
_cell_angle_alpha   90.00000000
_cell_angle_beta   90.00000000
_cell_angle_gamma   90.00000000
_symmetry_Int_Tables_number   1
_chemical_formula_structural   H2C2N
_chemical_formula_sum   'H16 C16 N8'
_cell_volume   778.17547322
_cell_formula_units_Z   8
loop_
 _symmetry_equiv_pos_site_id
 _symmetry_equiv_pos_as_xyz
  1  'x, y, z'
loop_
 _atom_site_type_symbol
 _atom_site_label
 _atom_site_symmetry_multiplicity
 _atom_site_fract_x
 _atom_site_fract_y
 _atom_site_fract_z
 _atom_site_occupancy
  H  H0  1  0.14960000  0.01890000  0.21340000  1
  H  H1  1  0.35040000  0.48110000  0.21340000  1
  H  H2  1  0.48110000  0.14960000  0.21340000  1
  H  H3  1  0.01890000  0.35040000  0.21340000  1
  H  H4  1  0.35040000  0.01890000  0.78660000  1
  H  H5  1  0.14960000  0.48110000  0.78660000  1
  H  H6  1  0.01890000  0.14960000  0.78660000  1
  H  H7  1  0.48110000  0.35040000  0.78660000  1
  H  H8  1  0.85040000  0.98110000  0.78660000  1
  H  H9  1  0.64960000  0.51890000  0.78660000  1
  H  H10  1  0.51890000  0.85040000  0.78660000  1
  H  H11  1  0.98110000  0.64960000  0.78660000  1
  H  H12  1  0.64960000  0.98110000  0.21340000  1
  H  H13  1  0.85040000  0.51890000  0.21340000  1
  H  H14  1  0.98110000  0.85040000  0.21340000  1
  H  H15  1  0.51890000  0.64960000  0.21340000  1
  C  C16  1  0.08832000  0.01257000  0.12365000  1
  C  C17  1  0.41168000  0.48743000  0.12365000  1
  C  C18  1  0.48743000  0.08832000  0.12365000  1
  C  C19  1  0.01257000  0.41168000  0.12365000  1
  C  C20  1  0.41168000  0.01257000  0.87635000  1
  C  C21  1  0.08832000  0.48743000  0.87635000  1
  C  C22  1  0.01257000  0.08832000  0.87635000  1
  C  C23  1  0.48743000  0.41168000  0.87635000  1
  C  C24  1  0.91168000  0.98743000  0.87635000  1
  C  C25  1  0.58832000  0.51257000  0.87635000  1
  C  C26  1  0.51257000  0.91168000  0.87635000  1
  C  C27  1  0.98743000  0.58832000  0.87635000  1
  C  C28  1  0.58832000  0.98743000  0.12365000  1
  C  C29  1  0.91168000  0.51257000  0.12365000  1
  C  C30  1  0.98743000  0.91168000  0.12365000  1
  C  C31  1  0.51257000  0.58832000  0.12365000  1
  N  N32  1  0.10103000  0.10103000  0.00000000  1
  N  N33  1  0.39897000  0.39897000  0.00000000  1
  N  N34  1  0.39897000  0.10103000  0.00000000  1
  N  N35  1  0.10103000  0.39897000  0.00000000  1
  N  N36  1  0.89897000  0.89897000  0.00000000  1
  N  N37  1  0.60103000  0.60103000  0.00000000  1
  N  N38  1  0.60103000  0.89897000  0.00000000  1
  N  N39  1  0.89897000  0.60103000  0.00000000  1
