# generated using pymatgen
data_CaO7
_symmetry_space_group_name_H-M   'P 1'
_cell_length_a   6.85300000
_cell_length_b   9.00700000
_cell_length_c   9.98700000
_cell_angle_alpha   102.13000000
_cell_angle_beta   100.53000000
_cell_angle_gamma   110.21000000
_symmetry_Int_Tables_number   1
_chemical_formula_structural   CaO7
_chemical_formula_sum   'Ca1 O7'
_cell_volume   543.23349480
_cell_formula_units_Z   1
loop_
 _symmetry_equiv_pos_site_id
 _symmetry_equiv_pos_as_xyz
  1  'x, y, z'
loop_
 _atom_site_type_symbol
 _atom_site_label
 _atom_site_symmetry_multiplicity
 _atom_site_fract_x
 _atom_site_fract_y
 _atom_site_fract_z
 _atom_site_occupancy
  Ca  Ca0  1  0.68520000  0.41532000  0.39009000  1
  O  O1  1  0.96690000  0.59150000  0.62230000  1
  O  O2  1  0.63130000  0.52090000  0.63470000  1
  O  O3  1  0.67450000  0.44220000  0.14700000  1
  O  O4  1  0.85980000  0.67220000  0.32360000  1
  O  O5  1  0.42170000  0.14750000  0.23310000  1
  O  O6  1  1.03310000  0.40850000  0.37770000  1
  O  O7  1  0.36870000  0.47910000  0.36530000  1
