# generated using pymatgen
data_H4(C3O2)3
_symmetry_space_group_name_H-M   'P 1'
_cell_length_a   6.85300000
_cell_length_b   9.00700000
_cell_length_c   9.98700000
_cell_angle_alpha   102.13000000
_cell_angle_beta   100.53000000
_cell_angle_gamma   110.21000000
_symmetry_Int_Tables_number   1
_chemical_formula_structural   H4(C3O2)3
_chemical_formula_sum   'H8 C18 O12'
_cell_volume   543.23349480
_cell_formula_units_Z   2
loop_
 _symmetry_equiv_pos_site_id
 _symmetry_equiv_pos_as_xyz
  1  'x, y, z'
loop_
 _atom_site_type_symbol
 _atom_site_label
 _atom_site_symmetry_multiplicity
 _atom_site_fract_x
 _atom_site_fract_y
 _atom_site_fract_z
 _atom_site_occupancy
  H  H0  1  0.49480000  0.22910000  0.04160000  1
  H  H1  1  0.70440000  0.49120000  0.90930000  1
  H  H2  1  0.12670000  0.88480000  0.24310000  1
  H  H3  1  0.15590000  0.87580000  0.83850000  1
  H  H4  1  0.50520000  0.77090000  0.95840000  1
  H  H5  1  0.29560000  0.50880000  0.09070000  1
  H  H6  1  0.87330000  0.11520000  0.75690000  1
  H  H7  1  0.84410000  0.12420000  0.16150000  1
  C  C8  1  0.91530000  0.67230000  0.85070000  1
  C  C9  1  0.82260000  0.59630000  0.94500000  1
  C  C10  1  0.90370000  0.67450000  0.09150000  1
  C  C11  1  0.07380000  0.83010000  0.14350000  1
  C  C12  1  0.16650000  0.90560000  0.04920000  1
  C  C13  1  0.08960000  0.82570000  0.90240000  1
  C  C14  1  0.83220000  0.58980000  0.69330000  1
  C  C15  1  0.80630000  0.59140000  0.19310000  1
  C  C16  1  0.34420000  0.07420000  0.10580000  1
  C  C17  1  0.08470000  0.32770000  0.14930000  1
  C  C18  1  0.17740000  0.40370000  0.05500000  1
  C  C19  1  0.09630000  0.32550000  0.90850000  1
  C  C20  1  0.92620000  0.16990000  0.85650000  1
  C  C21  1  0.83350000  0.09440000  0.95080000  1
  C  C22  1  0.91040000  0.17430000  0.09760000  1
  C  C23  1  0.16780000  0.41020000  0.30670000  1
  C  C24  1  0.19370000  0.40860000  0.80690000  1
  C  C25  1  0.65580000  0.92580000  0.89420000  1
  O  O26  1  0.96690000  0.59150000  0.62230000  1
  O  O27  1  0.63130000  0.52090000  0.63470000  1
  O  O28  1  0.67450000  0.44220000  0.14700000  1
  O  O29  1  0.85980000  0.67220000  0.32360000  1
  O  O30  1  0.40630000  0.13660000  0.00510000  1
  O  O31  1  0.42170000  0.14750000  0.23310000  1
  O  O32  1  0.03310000  0.40850000  0.37770000  1
  O  O33  1  0.36870000  0.47910000  0.36530000  1
  O  O34  1  0.32550000  0.55780000  0.85300000  1
  O  O35  1  0.14020000  0.32780000  0.67640000  1
  O  O36  1  0.59370000  0.86340000  0.99490000  1
  O  O37  1  0.57830000  0.85250000  0.76690000  1
