# generated using pymatgen
data_Ca
_symmetry_space_group_name_H-M   'P 1'
_cell_length_a   6.85300000
_cell_length_b   9.00700000
_cell_length_c   9.98700000
_cell_angle_alpha   102.13000000
_cell_angle_beta   100.53000000
_cell_angle_gamma   110.21000000
_symmetry_Int_Tables_number   1
_chemical_formula_structural   Ca
_chemical_formula_sum   Ca2
_cell_volume   543.23349480
_cell_formula_units_Z   2
loop_
 _symmetry_equiv_pos_site_id
 _symmetry_equiv_pos_as_xyz
  1  'x, y, z'
loop_
 _atom_site_type_symbol
 _atom_site_label
 _atom_site_symmetry_multiplicity
 _atom_site_fract_x
 _atom_site_fract_y
 _atom_site_fract_z
 _atom_site_occupancy
  Ca  Ca0  1  0.68520000  0.41532000  0.39009000  1
  Ca  Ca1  1  0.31480000  0.58468000  0.60991000  1
