# generated using pymatgen
data_Zn
_symmetry_space_group_name_H-M   'P 1'
_cell_length_a   18.30830000
_cell_length_b   18.30830000
_cell_length_c   18.30830000
_cell_angle_alpha   60.00000000
_cell_angle_beta   60.00000000
_cell_angle_gamma   60.00000000
_symmetry_Int_Tables_number   1
_chemical_formula_structural   Zn
_chemical_formula_sum   Zn8
_cell_volume   4339.39378529
_cell_formula_units_Z   8
loop_
 _symmetry_equiv_pos_site_id
 _symmetry_equiv_pos_as_xyz
  1  'x, y, z'
loop_
 _atom_site_type_symbol
 _atom_site_label
 _atom_site_symmetry_multiplicity
 _atom_site_fract_x
 _atom_site_fract_y
 _atom_site_fract_z
 _atom_site_occupancy
  Zn  Zn0  1  0.29342000  0.29341000  0.11976000  1
  Zn  Zn1  1  0.29342000  0.29341000  0.29341000  1
  Zn  Zn2  1  0.11977000  0.29341000  0.29341000  1
  Zn  Zn3  1  0.29342000  0.11976000  0.29341000  1
  Zn  Zn4  1  0.70658000  0.70659000  0.88024000  1
  Zn  Zn5  1  0.70658000  0.70659000  0.70659000  1
  Zn  Zn6  1  0.70658000  0.88024000  0.70659000  1
  Zn  Zn7  1  0.88023000  0.70659000  0.70659000  1
