# generated using pymatgen
data_H12C24O13
_symmetry_space_group_name_H-M   'P 1'
_cell_length_a   18.30830000
_cell_length_b   18.30830000
_cell_length_c   18.30830000
_cell_angle_alpha   60.00000000
_cell_angle_beta   60.00000000
_cell_angle_gamma   60.00000000
_symmetry_Int_Tables_number   1
_chemical_formula_structural   H12C24O13
_chemical_formula_sum   'H24 C48 O26'
_cell_volume   4339.39378529
_cell_formula_units_Z   2
loop_
 _symmetry_equiv_pos_site_id
 _symmetry_equiv_pos_as_xyz
  1  'x, y, z'
loop_
 _atom_site_type_symbol
 _atom_site_label
 _atom_site_symmetry_multiplicity
 _atom_site_fract_x
 _atom_site_fract_y
 _atom_site_fract_z
 _atom_site_occupancy
  H  H0  1  0.45480000  0.45480000  0.93480000  1
  H  H1  1  0.45480000  0.45480000  0.15560000  1
  H  H2  1  0.93480000  0.15560000  0.45480000  1
  H  H3  1  0.15560000  0.93480000  0.45480000  1
  H  H4  1  0.45480000  0.93480000  0.15560000  1
  H  H5  1  0.45480000  0.15560000  0.93480000  1
  H  H6  1  0.93480000  0.45480000  0.45480000  1
  H  H7  1  0.15560000  0.45480000  0.45480000  1
  H  H8  1  0.45480000  0.15560000  0.45480000  1
  H  H9  1  0.45480000  0.93480000  0.45480000  1
  H  H10  1  0.93480000  0.45480000  0.15560000  1
  H  H11  1  0.15560000  0.45480000  0.93480000  1
  H  H12  1  0.54520000  0.54520000  0.06520000  1
  H  H13  1  0.54520000  0.54520000  0.84440000  1
  H  H14  1  0.84440000  0.06520000  0.54520000  1
  H  H15  1  0.06520000  0.84440000  0.54520000  1
  H  H16  1  0.06520000  0.54520000  0.84440000  1
  H  H17  1  0.84440000  0.54520000  0.06520000  1
  H  H18  1  0.54520000  0.06520000  0.54520000  1
  H  H19  1  0.54520000  0.84440000  0.54520000  1
  H  H20  1  0.84440000  0.54520000  0.54520000  1
  H  H21  1  0.06520000  0.54520000  0.54520000  1
  H  H22  1  0.54520000  0.06520000  0.84440000  1
  H  H23  1  0.54520000  0.84440000  0.06520000  1
  C  C24  1  0.47317000  0.47317000  0.96131000  1
  C  C25  1  0.47317000  0.47317000  0.09235000  1
  C  C26  1  0.96131000  0.09235000  0.47317000  1
  C  C27  1  0.09235000  0.96131000  0.47317000  1
  C  C28  1  0.47317000  0.96131000  0.09235000  1
  C  C29  1  0.47317000  0.09235000  0.96131000  1
  C  C30  1  0.96131000  0.47317000  0.47317000  1
  C  C31  1  0.09235000  0.47317000  0.47317000  1
  C  C32  1  0.47317000  0.09235000  0.47317000  1
  C  C33  1  0.47317000  0.96131000  0.47317000  1
  C  C34  1  0.96131000  0.47317000  0.09235000  1
  C  C35  1  0.09235000  0.47317000  0.96131000  1
  C  C36  1  0.52683000  0.52683000  0.03869000  1
  C  C37  1  0.52683000  0.52683000  0.90765000  1
  C  C38  1  0.90765000  0.03869000  0.52683000  1
  C  C39  1  0.03869000  0.90765000  0.52683000  1
  C  C40  1  0.03869000  0.52683000  0.90765000  1
  C  C41  1  0.90765000  0.52683000  0.03869000  1
  C  C42  1  0.52683000  0.03869000  0.52683000  1
  C  C43  1  0.52683000  0.90765000  0.52683000  1
  C  C44  1  0.90765000  0.52683000  0.52683000  1
  C  C45  1  0.03869000  0.52683000  0.52683000  1
  C  C46  1  0.52683000  0.03869000  0.90765000  1
  C  C47  1  0.52683000  0.90765000  0.03869000  1
  C  C48  1  0.38843000  0.38843000  0.11157000  1
  C  C49  1  0.44641000  0.44641000  0.05359000  1
  C  C50  1  0.11157000  0.11157000  0.38843000  1
  C  C51  1  0.05359000  0.05359000  0.44641000  1
  C  C52  1  0.38843000  0.11157000  0.11157000  1
  C  C53  1  0.44641000  0.05359000  0.05359000  1
  C  C54  1  0.11157000  0.38843000  0.38843000  1
  C  C55  1  0.05359000  0.44641000  0.44641000  1
  C  C56  1  0.38843000  0.11157000  0.38843000  1
  C  C57  1  0.44641000  0.05359000  0.44641000  1
  C  C58  1  0.11157000  0.38843000  0.11157000  1
  C  C59  1  0.05359000  0.44641000  0.05359000  1
  C  C60  1  0.61157000  0.61157000  0.88843000  1
  C  C61  1  0.55359000  0.55359000  0.94641000  1
  C  C62  1  0.88843000  0.88843000  0.61157000  1
  C  C63  1  0.94641000  0.94641000  0.55359000  1
  C  C64  1  0.88843000  0.61157000  0.88843000  1
  C  C65  1  0.94641000  0.55359000  0.94641000  1
  C  C66  1  0.61157000  0.88843000  0.61157000  1
  C  C67  1  0.55359000  0.94641000  0.55359000  1
  C  C68  1  0.88843000  0.61157000  0.61157000  1
  C  C69  1  0.94641000  0.55359000  0.55359000  1
  C  C70  1  0.61157000  0.88843000  0.88843000  1
  C  C71  1  0.55359000  0.94641000  0.94641000  1
  O  O72  1  0.25000000  0.25000000  0.25000000  1
  O  O73  1  0.75000000  0.75000000  0.75000000  1
  O  O74  1  0.36629000  0.36629000  0.07237000  1
  O  O75  1  0.36629000  0.36629000  0.19505000  1
  O  O76  1  0.07237000  0.19505000  0.36629000  1
  O  O77  1  0.19505000  0.07237000  0.36629000  1
  O  O78  1  0.36629000  0.07237000  0.19505000  1
  O  O79  1  0.36629000  0.19505000  0.07237000  1
  O  O80  1  0.07237000  0.36629000  0.36629000  1
  O  O81  1  0.19505000  0.36629000  0.36629000  1
  O  O82  1  0.36629000  0.19505000  0.36629000  1
  O  O83  1  0.36629000  0.07237000  0.36629000  1
  O  O84  1  0.07237000  0.36629000  0.19505000  1
  O  O85  1  0.19505000  0.36629000  0.07237000  1
  O  O86  1  0.63371000  0.63371000  0.92763000  1
  O  O87  1  0.63371000  0.63371000  0.80495000  1
  O  O88  1  0.80495000  0.92763000  0.63371000  1
  O  O89  1  0.92763000  0.80495000  0.63371000  1
  O  O90  1  0.92763000  0.63371000  0.80495000  1
  O  O91  1  0.80495000  0.63371000  0.92763000  1
  O  O92  1  0.63371000  0.92763000  0.63371000  1
  O  O93  1  0.63371000  0.80495000  0.63371000  1
  O  O94  1  0.80495000  0.63371000  0.63371000  1
  O  O95  1  0.92763000  0.63371000  0.63371000  1
  O  O96  1  0.63371000  0.92763000  0.80495000  1
  O  O97  1  0.63371000  0.80495000  0.92763000  1
