# generated using pymatgen
data_HCO2
_symmetry_space_group_name_H-M   'P 1'
_cell_length_a   8.26100000
_cell_length_b   11.64140000
_cell_length_c   8.83320000
_cell_angle_alpha   90.00000000
_cell_angle_beta   90.00000000
_cell_angle_gamma   90.00000000
_symmetry_Int_Tables_number   1
_chemical_formula_structural   HCO2
_chemical_formula_sum   'H12 C12 O24'
_cell_volume   849.48535842
_cell_formula_units_Z   12
loop_
 _symmetry_equiv_pos_site_id
 _symmetry_equiv_pos_as_xyz
  1  'x, y, z'
loop_
 _atom_site_type_symbol
 _atom_site_label
 _atom_site_symmetry_multiplicity
 _atom_site_fract_x
 _atom_site_fract_y
 _atom_site_fract_z
 _atom_site_occupancy
  H  H0  1  0.58420000  0.28280000  0.43690000  1
  H  H1  1  0.91580000  0.71720000  0.43690000  1
  H  H2  1  0.91580000  0.78280000  0.06310000  1
  H  H3  1  0.58420000  0.21720000  0.06310000  1
  H  H4  1  0.41580000  0.71720000  0.56310000  1
  H  H5  1  0.08420000  0.28280000  0.56310000  1
  H  H6  1  0.08420000  0.21720000  0.93690000  1
  H  H7  1  0.41580000  0.78280000  0.93690000  1
  H  H8  1  0.25000000  0.50000000  0.19400000  1
  H  H9  1  0.25000000  0.00000000  0.30600000  1
  H  H10  1  0.75000000  0.50000000  0.80600000  1
  H  H11  1  0.75000000  0.00000000  0.69400000  1
  C  C12  1  0.52480000  0.22462000  0.48300000  1
  C  C13  1  0.97520000  0.77538000  0.48300000  1
  C  C14  1  0.97520000  0.72462000  0.01700000  1
  C  C15  1  0.52480000  0.27538000  0.01700000  1
  C  C16  1  0.47520000  0.77538000  0.51700000  1
  C  C17  1  0.02480000  0.22462000  0.51700000  1
  C  C18  1  0.02480000  0.27538000  0.98300000  1
  C  C19  1  0.47520000  0.72462000  0.98300000  1
  C  C20  1  0.25000000  0.50000000  0.29930000  1
  C  C21  1  0.25000000  0.00000000  0.20070000  1
  C  C22  1  0.75000000  0.50000000  0.70070000  1
  C  C23  1  0.75000000  0.00000000  0.79930000  1
  O  O24  1  0.25570000  0.40500000  0.36248000  1
  O  O25  1  0.40781000  0.18375000  0.41197000  1
  O  O26  1  0.56754000  0.19269000  0.61169000  1
  O  O27  1  0.24430000  0.59500000  0.36248000  1
  O  O28  1  0.09219000  0.81625000  0.41197000  1
  O  O29  1  0.93246000  0.80731000  0.61169000  1
  O  O30  1  0.24430000  0.90500000  0.13752000  1
  O  O31  1  0.09219000  0.68375000  0.08803000  1
  O  O32  1  0.93246000  0.69269000  0.88831000  1
  O  O33  1  0.25570000  0.09500000  0.13752000  1
  O  O34  1  0.40781000  0.31625000  0.08803000  1
  O  O35  1  0.56754000  0.30731000  0.88831000  1
  O  O36  1  0.74430000  0.59500000  0.63752000  1
  O  O37  1  0.59219000  0.81625000  0.58803000  1
  O  O38  1  0.43246000  0.80731000  0.38831000  1
  O  O39  1  0.75570000  0.40500000  0.63752000  1
  O  O40  1  0.90781000  0.18375000  0.58803000  1
  O  O41  1  0.06754000  0.19269000  0.38831000  1
  O  O42  1  0.75570000  0.09500000  0.86248000  1
  O  O43  1  0.90781000  0.31625000  0.91197000  1
  O  O44  1  0.06754000  0.30731000  0.11169000  1
  O  O45  1  0.74430000  0.90500000  0.86248000  1
  O  O46  1  0.59219000  0.68375000  0.91197000  1
  O  O47  1  0.43246000  0.69269000  0.11169000  1
