# generated using pymatgen
data_H5C5SNO4
_symmetry_space_group_name_H-M   'P 1'
_cell_length_a   12.29860000
_cell_length_b   12.29860000
_cell_length_c   5.24440000
_cell_angle_alpha   90.00000000
_cell_angle_beta   90.00000000
_cell_angle_gamma   90.00000000
_symmetry_Int_Tables_number   1
_chemical_formula_structural   H5C5SNO4
_chemical_formula_sum   'H20 C20 S4 N4 O16'
_cell_volume   793.24466914
_cell_formula_units_Z   4
loop_
 _symmetry_equiv_pos_site_id
 _symmetry_equiv_pos_as_xyz
  1  'x, y, z'
loop_
 _atom_site_type_symbol
 _atom_site_label
 _atom_site_symmetry_multiplicity
 _atom_site_fract_x
 _atom_site_fract_y
 _atom_site_fract_z
 _atom_site_occupancy
  H  H0  1  0.90650000  0.59570000  0.88120000  1
  H  H1  1  0.82850000  0.45920000  0.10970000  1
  H  H2  1  0.66180000  0.61900000  0.89700000  1
  H  H3  1  0.62640000  0.71140000  0.08880000  1
  H  H4  1  0.80320000  0.73880000  0.86520000  1
  H  H5  1  0.09350000  0.40430000  0.38120000  1
  H  H6  1  0.17150000  0.54080000  0.60970000  1
  H  H7  1  0.33820000  0.38100000  0.39700000  1
  H  H8  1  0.37360000  0.28860000  0.58880000  1
  H  H9  1  0.19680000  0.26120000  0.36520000  1
  H  H10  1  0.40430000  0.90650000  0.13120000  1
  H  H11  1  0.54080000  0.82850000  0.35970000  1
  H  H12  1  0.38100000  0.66180000  0.14700000  1
  H  H13  1  0.28860000  0.62640000  0.33880000  1
  H  H14  1  0.26120000  0.80320000  0.11520000  1
  H  H15  1  0.59570000  0.09350000  0.63120000  1
  H  H16  1  0.45920000  0.17150000  0.85970000  1
  H  H17  1  0.61900000  0.33820000  0.64700000  1
  H  H18  1  0.71140000  0.37360000  0.83880000  1
  H  H19  1  0.73880000  0.19680000  0.61520000  1
  C  C20  1  0.81380000  0.79550000  0.23610000  1
  C  C21  1  0.89710000  0.50220000  0.45750000  1
  C  C22  1  0.83060000  0.52460000  0.21640000  1
  C  C23  1  0.68080000  0.65630000  0.05380000  1
  C  C24  1  0.79440000  0.70680000  0.03510000  1
  C  C25  1  0.18620000  0.20450000  0.73610000  1
  C  C26  1  0.10290000  0.49780000  0.95750000  1
  C  C27  1  0.16940000  0.47540000  0.71640000  1
  C  C28  1  0.31920000  0.34370000  0.55380000  1
  C  C29  1  0.20560000  0.29320000  0.53510000  1
  C  C30  1  0.20450000  0.81380000  0.48610000  1
  C  C31  1  0.49780000  0.89710000  0.70750000  1
  C  C32  1  0.47540000  0.83060000  0.46640000  1
  C  C33  1  0.34370000  0.68080000  0.30380000  1
  C  C34  1  0.29320000  0.79440000  0.28510000  1
  C  C35  1  0.79550000  0.18620000  0.98610000  1
  C  C36  1  0.50220000  0.10290000  0.20750000  1
  C  C37  1  0.52460000  0.16940000  0.96640000  1
  C  C38  1  0.65630000  0.31920000  0.80380000  1
  C  C39  1  0.70680000  0.20560000  0.78510000  1
  S  S40  1  0.69150000  0.56127000  0.31643000  1
  S  S41  1  0.30850000  0.43873000  0.81643000  1
  S  S42  1  0.43873000  0.69150000  0.56643000  1
  S  S43  1  0.56127000  0.30850000  0.06643000  1
  N  N44  1  0.87540000  0.61770000  0.06670000  1
  N  N45  1  0.12460000  0.38230000  0.56670000  1
  N  N46  1  0.38230000  0.87540000  0.31670000  1
  N  N47  1  0.61770000  0.12460000  0.81670000  1
  O  O48  1  0.87310000  0.41630000  0.57600000  1
  O  O49  1  0.96850000  0.56929000  0.52530000  1
  O  O50  1  0.74430000  0.87226000  0.25520000  1
  O  O51  1  0.89740000  0.79080000  0.37410000  1
  O  O52  1  0.12690000  0.58370000  0.07600000  1
  O  O53  1  0.03150000  0.43071000  0.02530000  1
  O  O54  1  0.25570000  0.12774000  0.75520000  1
  O  O55  1  0.10260000  0.20920000  0.87410000  1
  O  O56  1  0.58370000  0.87310000  0.82600000  1
  O  O57  1  0.43071000  0.96850000  0.77530000  1
  O  O58  1  0.12774000  0.74430000  0.50520000  1
  O  O59  1  0.20920000  0.89740000  0.62410000  1
  O  O60  1  0.41630000  0.12690000  0.32600000  1
  O  O61  1  0.56929000  0.03150000  0.27530000  1
  O  O62  1  0.87226000  0.25570000  0.00520000  1
  O  O63  1  0.79080000  0.10260000  0.12410000  1
