# generated using pymatgen
data_NiNO4
_symmetry_space_group_name_H-M   'P 1'
_cell_length_a   12.29860000
_cell_length_b   12.29860000
_cell_length_c   5.24440000
_cell_angle_alpha   90.00000000
_cell_angle_beta   90.00000000
_cell_angle_gamma   90.00000000
_symmetry_Int_Tables_number   1
_chemical_formula_structural   NiNO4
_chemical_formula_sum   'Ni1 N1 O4'
_cell_volume   793.24466914
_cell_formula_units_Z   1
loop_
 _symmetry_equiv_pos_site_id
 _symmetry_equiv_pos_as_xyz
  1  'x, y, z'
loop_
 _atom_site_type_symbol
 _atom_site_label
 _atom_site_symmetry_multiplicity
 _atom_site_fract_x
 _atom_site_fract_y
 _atom_site_fract_z
 _atom_site_occupancy
  Ni  Ni0  1  0.67929000  0.98775000  0.00610000  1
  N  N1  1  0.61770000  1.12460000  -0.18330000  1
  O  O2  1  0.74430000  0.87226000  0.25520000  1
  O  O3  1  0.58370000  0.87310000  -0.17400000  1
  O  O4  1  0.56929000  1.03150000  0.27530000  1
  O  O5  1  0.79080000  1.10260000  0.12410000  1
