# generated using pymatgen
data_H7C15O7
_symmetry_space_group_name_H-M   'P 1'
_cell_length_a   9.35300000
_cell_length_b   9.79700000
_cell_length_c   11.38800000
_cell_angle_alpha   94.34000000
_cell_angle_beta   99.40700000
_cell_angle_gamma   111.45500000
_symmetry_Int_Tables_number   1
_chemical_formula_structural   H7C15O7
_chemical_formula_sum   'H14 C30 O14'
_cell_volume   947.64434486
_cell_formula_units_Z   2
loop_
 _symmetry_equiv_pos_site_id
 _symmetry_equiv_pos_as_xyz
  1  'x, y, z'
loop_
 _atom_site_type_symbol
 _atom_site_label
 _atom_site_symmetry_multiplicity
 _atom_site_fract_x
 _atom_site_fract_y
 _atom_site_fract_z
 _atom_site_occupancy
  H  H0  1  0.27380000  0.23310000  0.12100000  1
  H  H1  1  0.17660000  0.10180000  0.93620000  1
  H  H2  1  0.84510000  0.26990000  0.88450000  1
  H  H3  1  0.93680000  0.39710000  0.07810000  1
  H  H4  1  0.19970000  0.29240000  0.72280000  1
  H  H5  1  0.32210000  0.00250000  0.54010000  1
  H  H6  1  0.92050000  0.85950000  0.66090000  1
  H  H7  1  0.72620000  0.76690000  0.87900000  1
  H  H8  1  0.82340000  0.89820000  0.06380000  1
  H  H9  1  0.15490000  0.73010000  0.11550000  1
  H  H10  1  0.06320000  0.60290000  0.92190000  1
  H  H11  1  0.80030000  0.70760000  0.27720000  1
  H  H12  1  0.67790000  0.99750000  0.45990000  1
  H  H13  1  0.07950000  0.14050000  0.33910000  1
  C  C14  1  0.17510000  0.41270000  0.24520000  1
  C  C15  1  0.11590000  0.32770000  0.12340000  1
  C  C16  1  0.18570000  0.23960000  0.07450000  1
  C  C17  1  0.13100000  0.16460000  0.96380000  1
  C  C18  1  0.00560000  0.17950000  0.88890000  1
  C  C19  1  0.93200000  0.26340000  0.93290000  1
  C  C20  1  0.98630000  0.33880000  0.04910000  1
  C  C21  1  0.04800000  0.07750000  0.70760000  1
  C  C22  1  0.18030000  0.19560000  0.69100000  1
  C  C23  1  0.28110000  0.16580000  0.62670000  1
  C  C24  1  0.25090000  0.02250000  0.57960000  1
  C  C25  1  0.11410000  0.90630000  0.59040000  1
  C  C26  1  0.01260000  0.93560000  0.65420000  1
  C  C27  1  0.41950000  0.29100000  0.60310000  1
  C  C28  1  0.08150000  0.75330000  0.53320000  1
  C  C29  1  0.82490000  0.58730000  0.75480000  1
  C  C30  1  0.88410000  0.67230000  0.87660000  1
  C  C31  1  0.81430000  0.76040000  0.92550000  1
  C  C32  1  0.86900000  0.83540000  0.03620000  1
  C  C33  1  0.99440000  0.82050000  0.11110000  1
  C  C34  1  0.06800000  0.73660000  0.06710000  1
  C  C35  1  0.01370000  0.66120000  0.95090000  1
  C  C36  1  0.95200000  0.92250000  0.29240000  1
  C  C37  1  0.81970000  0.80440000  0.30900000  1
  C  C38  1  0.71890000  0.83420000  0.37330000  1
  C  C39  1  0.74910000  0.97750000  0.42040000  1
  C  C40  1  0.88590000  0.09370000  0.40960000  1
  C  C41  1  0.98740000  0.06440000  0.34580000  1
  C  C42  1  0.58050000  0.70900000  0.39690000  1
  C  C43  1  0.91850000  0.24670000  0.46680000  1
  O  O44  1  0.12220000  0.50450000  0.28280000  1
  O  O45  1  0.28150000  0.38930000  0.31690000  1
  O  O46  1  0.54660000  0.27510000  0.60580000  1
  O  O47  1  0.40230000  0.40770000  0.57780000  1
  O  O48  1  0.18910000  0.73070000  0.49170000  1
  O  O49  1  0.94960000  0.65530000  0.52850000  1
  O  O50  1  0.94520000  0.10500000  0.77260000  1
  O  O51  1  0.87780000  0.49550000  0.71720000  1
  O  O52  1  0.71850000  0.61070000  0.68310000  1
  O  O53  1  0.45340000  0.72490000  0.39420000  1
  O  O54  1  0.59770000  0.59230000  0.42220000  1
  O  O55  1  0.81090000  0.26930000  0.50830000  1
  O  O56  1  0.05040000  0.34470000  0.47150000  1
  O  O57  1  0.05480000  0.89500000  0.22740000  1
