# generated using pymatgen
data_Y
_symmetry_space_group_name_H-M   'P 1'
_cell_length_a   9.35300000
_cell_length_b   9.79700000
_cell_length_c   11.38800000
_cell_angle_alpha   94.34000000
_cell_angle_beta   99.40700000
_cell_angle_gamma   111.45500000
_symmetry_Int_Tables_number   1
_chemical_formula_structural   Y
_chemical_formula_sum   Y2
_cell_volume   947.64434486
_cell_formula_units_Z   2
loop_
 _symmetry_equiv_pos_site_id
 _symmetry_equiv_pos_as_xyz
  1  'x, y, z'
loop_
 _atom_site_type_symbol
 _atom_site_label
 _atom_site_symmetry_multiplicity
 _atom_site_fract_x
 _atom_site_fract_y
 _atom_site_fract_z
 _atom_site_occupancy
  Y  Y0  1  0.27654000  0.54510000  0.48855000  1
  Y  Y1  1  0.72346000  0.45490000  0.51145000  1
