# generated using pymatgen
data_YO6
_symmetry_space_group_name_H-M   'P 1'
_cell_length_a   9.35300000
_cell_length_b   9.79700000
_cell_length_c   11.38800000
_cell_angle_alpha   94.34000000
_cell_angle_beta   99.40700000
_cell_angle_gamma   111.45500000
_symmetry_Int_Tables_number   1
_chemical_formula_structural   YO6
_chemical_formula_sum   'Y1 O6'
_cell_volume   947.64434486
_cell_formula_units_Z   1
loop_
 _symmetry_equiv_pos_site_id
 _symmetry_equiv_pos_as_xyz
  1  'x, y, z'
loop_
 _atom_site_type_symbol
 _atom_site_label
 _atom_site_symmetry_multiplicity
 _atom_site_fract_x
 _atom_site_fract_y
 _atom_site_fract_z
 _atom_site_occupancy
  Y  Y0  1  0.72346000  0.45490000  0.51145000  1
  O  O1  1  0.54660000  0.27510000  0.60580000  1
  O  O2  1  0.94960000  0.65530000  0.52850000  1
  O  O3  1  0.87780000  0.49550000  0.71720000  1
  O  O4  1  0.71850000  0.61070000  0.68310000  1
  O  O5  1  0.59770000  0.59230000  0.42220000  1
  O  O6  1  0.81090000  0.26930000  0.50830000  1
