# generated using pymatgen
data_YO6
_symmetry_space_group_name_H-M   'P 1'
_cell_length_a   9.35300000
_cell_length_b   9.79700000
_cell_length_c   11.38800000
_cell_angle_alpha   94.34000000
_cell_angle_beta   99.40700000
_cell_angle_gamma   111.45500000
_symmetry_Int_Tables_number   1
_chemical_formula_structural   YO6
_chemical_formula_sum   'Y1 O6'
_cell_volume   947.64434486
_cell_formula_units_Z   1
loop_
 _symmetry_equiv_pos_site_id
 _symmetry_equiv_pos_as_xyz
  1  'x, y, z'
loop_
 _atom_site_type_symbol
 _atom_site_label
 _atom_site_symmetry_multiplicity
 _atom_site_fract_x
 _atom_site_fract_y
 _atom_site_fract_z
 _atom_site_occupancy
  Y  Y0  1  0.27654000  0.54510000  0.48855000  1
  O  O1  1  0.12220000  0.50450000  0.28280000  1
  O  O2  1  0.28150000  0.38930000  0.31690000  1
  O  O3  1  0.40230000  0.40770000  0.57780000  1
  O  O4  1  0.18910000  0.73070000  0.49170000  1
  O  O5  1  0.45340000  0.72490000  0.39420000  1
  O  O6  1  0.05040000  0.34470000  0.47150000  1
