# generated using pymatgen
data_Nd
_symmetry_space_group_name_H-M   'P 1'
_cell_length_a   9.52110000
_cell_length_b   9.98350000
_cell_length_c   11.48430000
_cell_angle_alpha   96.34200000
_cell_angle_beta   97.06300000
_cell_angle_gamma   111.76300000
_symmetry_Int_Tables_number   1
_chemical_formula_structural   Nd
_chemical_formula_sum   Nd2
_cell_volume   991.60263181
_cell_formula_units_Z   2
loop_
 _symmetry_equiv_pos_site_id
 _symmetry_equiv_pos_as_xyz
  1  'x, y, z'
loop_
 _atom_site_type_symbol
 _atom_site_label
 _atom_site_symmetry_multiplicity
 _atom_site_fract_x
 _atom_site_fract_y
 _atom_site_fract_z
 _atom_site_occupancy
  Nd  Nd0  1  0.71371000  0.95488000  0.00921000  1
  Nd  Nd1  1  0.28629000  0.04512000  0.99079000  1
