# generated using pymatgen
data_H8C15NO7
_symmetry_space_group_name_H-M   'P 1'
_cell_length_a   9.52110000
_cell_length_b   9.98350000
_cell_length_c   11.48430000
_cell_angle_alpha   96.34200000
_cell_angle_beta   97.06300000
_cell_angle_gamma   111.76300000
_symmetry_Int_Tables_number   1
_chemical_formula_structural   H8C15NO7
_chemical_formula_sum   'H16 C30 N2 O14'
_cell_volume   991.60263181
_cell_formula_units_Z   2
loop_
 _symmetry_equiv_pos_site_id
 _symmetry_equiv_pos_as_xyz
  1  'x, y, z'
loop_
 _atom_site_type_symbol
 _atom_site_label
 _atom_site_symmetry_multiplicity
 _atom_site_fract_x
 _atom_site_fract_y
 _atom_site_fract_z
 _atom_site_occupancy
  H  H0  1  0.31910000  0.49610000  0.02870000  1
  H  H1  1  0.19430000  0.79330000  0.21340000  1
  H  H2  1  0.92040000  0.36220000  0.15710000  1
  H  H3  1  0.17120000  0.59130000  0.41950000  1
  H  H4  1  0.25690000  0.70690000  0.61860000  1
  H  H5  1  0.94670000  0.89490000  0.58620000  1
  H  H6  1  0.83220000  0.84730000  0.31850000  1
  H  H7  1  0.73790000  0.69620000  0.31540000  1
  H  H8  1  0.68090000  0.50390000  0.97130000  1
  H  H9  1  0.80570000  0.20670000  0.78660000  1
  H  H10  1  0.07960000  0.63780000  0.84290000  1
  H  H11  1  0.82880000  0.40870000  0.58050000  1
  H  H12  1  0.74310000  0.29310000  0.38140000  1
  H  H13  1  0.05330000  0.10510000  0.41380000  1
  H  H14  1  0.16780000  0.15270000  0.68150000  1
  H  H15  1  0.26210000  0.30380000  0.68460000  1
  C  C16  1  0.07760000  0.25240000  0.02530000  1
  C  C17  1  0.11170000  0.40720000  0.08170000  1
  C  C18  1  0.24760000  0.51840000  0.06980000  1
  C  C19  1  0.27820000  0.66300000  0.11850000  1
  C  C20  1  0.42240000  0.78270000  0.10120000  1
  C  C21  1  0.17620000  0.69500000  0.18240000  1
  C  C22  1  0.04840000  0.58100000  0.19990000  1
  C  C23  1  0.01240000  0.43820000  0.14770000  1
  C  C24  1  0.00740000  0.67590000  0.38550000  1
  C  C25  1  0.12590000  0.65300000  0.45340000  1
  C  C26  1  0.17650000  0.72200000  0.57140000  1
  C  C27  1  0.11110000  0.81270000  0.62110000  1
  C  C28  1  0.17180000  0.89420000  0.74460000  1
  C  C29  1  0.99180000  0.83320000  0.55220000  1
  C  C30  1  0.93830000  0.76420000  0.43430000  1
  C  C31  1  0.92240000  0.74760000  0.97470000  1
  C  C32  1  0.88830000  0.59280000  0.91830000  1
  C  C33  1  0.75240000  0.48160000  0.93020000  1
  C  C34  1  0.72180000  0.33700000  0.88150000  1
  C  C35  1  0.57760000  0.21730000  0.89880000  1
  C  C36  1  0.82380000  0.30500000  0.81760000  1
  C  C37  1  0.95160000  0.41900000  0.80010000  1
  C  C38  1  0.98760000  0.56180000  0.85230000  1
  C  C39  1  0.99260000  0.32410000  0.61450000  1
  C  C40  1  0.87410000  0.34700000  0.54660000  1
  C  C41  1  0.82350000  0.27800000  0.42860000  1
  C  C42  1  0.88890000  0.18730000  0.37890000  1
  C  C43  1  0.82820000  0.10580000  0.25540000  1
  C  C44  1  0.00820000  0.16680000  0.44780000  1
  C  C45  1  0.06170000  0.23580000  0.56570000  1
  N  N46  1  0.81170000  0.77600000  0.36470000  1
  N  N47  1  0.18830000  0.22400000  0.63530000  1
  O  O48  1  0.54460000  0.76090000  0.11040000  1
  O  O49  1  0.11960000  0.98730000  0.78500000  1
  O  O50  1  0.18520000  0.22770000  0.98770000  1
  O  O51  1  0.94560000  0.15880000  0.01880000  1
  O  O52  1  0.41650000  0.90230000  0.07680000  1
  O  O53  1  0.94670000  0.60970000  0.26790000  1
  O  O54  1  0.27740000  0.87370000  0.80970000  1
  O  O55  1  0.45540000  0.23910000  0.88960000  1
  O  O56  1  0.88040000  0.01270000  0.21500000  1
  O  O57  1  0.81480000  0.77230000  0.01230000  1
  O  O58  1  0.05440000  0.84120000  0.98120000  1
  O  O59  1  0.58350000  0.09770000  0.92320000  1
  O  O60  1  0.05330000  0.39030000  0.73210000  1
  O  O61  1  0.72260000  0.12630000  0.19030000  1
