# generated using pymatgen
data_NdO6
_symmetry_space_group_name_H-M   'P 1'
_cell_length_a   9.52110000
_cell_length_b   9.98350000
_cell_length_c   11.48430000
_cell_angle_alpha   96.34200000
_cell_angle_beta   97.06300000
_cell_angle_gamma   111.76300000
_symmetry_Int_Tables_number   1
_chemical_formula_structural   NdO6
_chemical_formula_sum   'Nd1 O6'
_cell_volume   991.60263181
_cell_formula_units_Z   1
loop_
 _symmetry_equiv_pos_site_id
 _symmetry_equiv_pos_as_xyz
  1  'x, y, z'
loop_
 _atom_site_type_symbol
 _atom_site_label
 _atom_site_symmetry_multiplicity
 _atom_site_fract_x
 _atom_site_fract_y
 _atom_site_fract_z
 _atom_site_occupancy
  Nd  Nd0  1  0.28629000  0.04512000  0.99079000  1
  O  O1  1  0.11960000  -0.01270000  0.78500000  1
  O  O2  1  0.18520000  0.22770000  0.98770000  1
  O  O3  1  0.41650000  -0.09770000  1.07680000  1
  O  O4  1  0.27740000  -0.12630000  0.80970000  1
  O  O5  1  0.45540000  0.23910000  0.88960000  1
  O  O6  1  0.05440000  -0.15880000  0.98120000  1
