# generated using pymatgen
data_NdO6
_symmetry_space_group_name_H-M   'P 1'
_cell_length_a   9.52110000
_cell_length_b   9.98350000
_cell_length_c   11.48430000
_cell_angle_alpha   96.34200000
_cell_angle_beta   97.06300000
_cell_angle_gamma   111.76300000
_symmetry_Int_Tables_number   1
_chemical_formula_structural   NdO6
_chemical_formula_sum   'Nd1 O6'
_cell_volume   991.60263181
_cell_formula_units_Z   1
loop_
 _symmetry_equiv_pos_site_id
 _symmetry_equiv_pos_as_xyz
  1  'x, y, z'
loop_
 _atom_site_type_symbol
 _atom_site_label
 _atom_site_symmetry_multiplicity
 _atom_site_fract_x
 _atom_site_fract_y
 _atom_site_fract_z
 _atom_site_occupancy
  Nd  Nd0  1  0.71371000  0.95488000  0.00921000  1
  O  O1  1  0.54460000  0.76090000  0.11040000  1
  O  O2  1  0.94560000  1.15880000  0.01880000  1
  O  O3  1  0.88040000  1.01270000  0.21500000  1
  O  O4  1  0.81480000  0.77230000  0.01230000  1
  O  O5  1  0.58350000  1.09770000  -0.07680000  1
  O  O6  1  0.72260000  1.12630000  0.19030000  1
