# generated using pymatgen
data_P4O17
_symmetry_space_group_name_H-M   'P 1'
_cell_length_a   10.13830000
_cell_length_b   10.13830000
_cell_length_c   9.62800000
_cell_angle_alpha   90.00000000
_cell_angle_beta   90.00000000
_cell_angle_gamma   90.00000000
_symmetry_Int_Tables_number   1
_chemical_formula_structural   P4O17
_chemical_formula_sum   'P8 O34'
_cell_volume   989.61520170
_cell_formula_units_Z   2
loop_
 _symmetry_equiv_pos_site_id
 _symmetry_equiv_pos_as_xyz
  1  'x, y, z'
loop_
 _atom_site_type_symbol
 _atom_site_label
 _atom_site_symmetry_multiplicity
 _atom_site_fract_x
 _atom_site_fract_y
 _atom_site_fract_z
 _atom_site_occupancy
  P  P0  1  0.33110000  0.66890000  0.19610000  1
  P  P1  1  0.83110000  0.16890000  0.69610000  1
  P  P2  1  0.66890000  0.33110000  0.19610000  1
  P  P3  1  0.16890000  0.83110000  0.69610000  1
  P  P4  1  0.66890000  0.66890000  0.80390000  1
  P  P5  1  0.16890000  0.16890000  0.30390000  1
  P  P6  1  0.33110000  0.33110000  0.80390000  1
  P  P7  1  0.83110000  0.83110000  0.30390000  1
  O  O8  1  0.29900000  0.52400000  0.22300000  1
  O  O9  1  0.79900000  0.02400000  0.72300000  1
  O  O10  1  0.70100000  0.47600000  0.22300000  1
  O  O11  1  0.20100000  0.97600000  0.72300000  1
  O  O12  1  0.52400000  0.70100000  0.77700000  1
  O  O13  1  0.02400000  0.20100000  0.27700000  1
  O  O14  1  0.47600000  0.29900000  0.77700000  1
  O  O15  1  0.97600000  0.79900000  0.27700000  1
  O  O16  1  0.70100000  0.52400000  0.77700000  1
  O  O17  1  0.20100000  0.02400000  0.27700000  1
  O  O18  1  0.29900000  0.47600000  0.77700000  1
  O  O19  1  0.79900000  0.97600000  0.27700000  1
  O  O20  1  0.47600000  0.70100000  0.22300000  1
  O  O21  1  0.97600000  0.20100000  0.72300000  1
  O  O22  1  0.52400000  0.29900000  0.22300000  1
  O  O23  1  0.02400000  0.79900000  0.72300000  1
  O  O24  1  0.50000000  0.50000000  0.00000000  1
  O  O25  1  0.00000000  0.00000000  0.50000000  1
  O  O26  1  0.29600000  0.70400000  0.05200000  1
  O  O27  1  0.24600000  0.75400000  0.31000000  1
  O  O28  1  0.79600000  0.20400000  0.55200000  1
  O  O29  1  0.74600000  0.25400000  0.81000000  1
  O  O30  1  0.70400000  0.29600000  0.05200000  1
  O  O31  1  0.75400000  0.24600000  0.31000000  1
  O  O32  1  0.20400000  0.79600000  0.55200000  1
  O  O33  1  0.25400000  0.74600000  0.81000000  1
  O  O34  1  0.70400000  0.70400000  0.94800000  1
  O  O35  1  0.75400000  0.75400000  0.69000000  1
  O  O36  1  0.20400000  0.20400000  0.44800000  1
  O  O37  1  0.25400000  0.25400000  0.19000000  1
  O  O38  1  0.29600000  0.29600000  0.94800000  1
  O  O39  1  0.24600000  0.24600000  0.69000000  1
  O  O40  1  0.79600000  0.79600000  0.44800000  1
  O  O41  1  0.74600000  0.74600000  0.19000000  1
