# generated using pymatgen
data_CeO7
_symmetry_space_group_name_H-M   'P 1'
_cell_length_a   9.22750000
_cell_length_b   9.77100000
_cell_length_c   10.69900000
_cell_angle_alpha   67.81000000
_cell_angle_beta   84.49000000
_cell_angle_gamma   61.84000000
_symmetry_Int_Tables_number   1
_chemical_formula_structural   CeO7
_chemical_formula_sum   'Ce1 O7'
_cell_volume   783.46808035
_cell_formula_units_Z   1
loop_
 _symmetry_equiv_pos_site_id
 _symmetry_equiv_pos_as_xyz
  1  'x, y, z'
loop_
 _atom_site_type_symbol
 _atom_site_label
 _atom_site_symmetry_multiplicity
 _atom_site_fract_x
 _atom_site_fract_y
 _atom_site_fract_z
 _atom_site_occupancy
  Ce  Ce0  1  0.27715000  0.95616000  0.01686000  1
  O  O1  1  0.00820000  1.05000000  0.11100000  1
  O  O2  1  0.47480000  1.03200000  -0.13400000  1
  O  O3  1  0.07850000  1.23230000  -0.17120000  1
  O  O4  1  0.19290000  1.26550000  -0.02150000  1
  O  O5  1  0.24290000  0.88040000  -0.17260000  1
  O  O6  1  0.37420000  0.86610000  0.26490000  1
  O  O7  1  0.52520000  0.96800000  0.13400000  1
