# generated using pymatgen
data_H4C3O2
_symmetry_space_group_name_H-M   'P 1'
_cell_length_a   9.22750000
_cell_length_b   9.77100000
_cell_length_c   10.69900000
_cell_angle_alpha   67.81000000
_cell_angle_beta   84.49000000
_cell_angle_gamma   61.84000000
_symmetry_Int_Tables_number   1
_chemical_formula_structural   H4C3O2
_chemical_formula_sum   'H24 C18 O12'
_cell_volume   783.46808035
_cell_formula_units_Z   6
loop_
 _symmetry_equiv_pos_site_id
 _symmetry_equiv_pos_as_xyz
  1  'x, y, z'
loop_
 _atom_site_type_symbol
 _atom_site_label
 _atom_site_symmetry_multiplicity
 _atom_site_fract_x
 _atom_site_fract_y
 _atom_site_fract_z
 _atom_site_occupancy
  H  H0  1  0.10120000  0.44900000  0.13300000  1
  H  H1  1  0.06630000  0.46070000  0.27580000  1
  H  H2  1  0.88010000  0.39700000  0.13020000  1
  H  H3  1  0.82810000  0.42600000  0.26590000  1
  H  H4  1  0.13200000  0.16190000  0.24810000  1
  H  H5  1  0.07360000  0.18890000  0.38320000  1
  H  H6  1  0.85970000  0.12690000  0.37030000  1
  H  H7  1  0.03330000  0.97500000  0.37920000  1
  H  H8  1  0.32980000  0.09670000  0.65120000  1
  H  H9  1  0.38330000  0.23110000  0.56060000  1
  H  H10  1  0.58700000  0.88120000  0.62770000  1
  H  H11  1  0.63280000  0.01900000  0.53150000  1
  H  H12  1  0.89880000  0.55100000  0.86700000  1
  H  H13  1  0.93370000  0.53930000  0.72420000  1
  H  H14  1  0.11990000  0.60300000  0.86980000  1
  H  H15  1  0.17190000  0.57400000  0.73410000  1
  H  H16  1  0.86800000  0.83810000  0.75190000  1
  H  H17  1  0.92640000  0.81110000  0.61680000  1
  H  H18  1  0.14030000  0.87310000  0.62970000  1
  H  H19  1  0.96670000  0.02500000  0.62080000  1
  H  H20  1  0.67020000  0.90330000  0.34880000  1
  H  H21  1  0.61670000  0.76890000  0.43940000  1
  H  H22  1  0.41300000  0.11880000  0.37230000  1
  H  H23  1  0.36720000  0.98100000  0.46850000  1
  C  C24  1  0.90600000  0.67270000  0.12270000  1
  C  C25  1  0.01430000  0.48510000  0.19000000  1
  C  C26  1  0.92160000  0.38420000  0.21600000  1
  C  C27  1  0.03580000  0.20040000  0.29650000  1
  C  C28  1  0.95580000  0.08860000  0.32180000  1
  C  C29  1  0.90340000  0.08670000  0.19310000  1
  C  C30  1  0.51060000  0.09450000  0.74890000  1
  C  C31  1  0.42380000  0.11670000  0.62570000  1
  C  C32  1  0.54170000  0.99480000  0.56040000  1
  C  C33  1  0.09400000  0.32730000  0.87730000  1
  C  C34  1  0.98570000  0.51490000  0.81000000  1
  C  C35  1  0.07840000  0.61580000  0.78400000  1
  C  C36  1  0.96420000  0.79960000  0.70350000  1
  C  C37  1  0.04420000  0.91140000  0.67820000  1
  C  C38  1  0.09660000  0.91330000  0.80690000  1
  C  C39  1  0.48940000  0.90550000  0.25110000  1
  C  C40  1  0.57620000  0.88330000  0.37430000  1
  C  C41  1  0.45830000  0.00520000  0.43960000  1
  O  O42  1  0.92150000  0.76770000  0.17120000  1
  O  O43  1  0.80710000  0.73450000  0.02150000  1
  O  O44  1  0.75710000  0.11960000  0.17260000  1
  O  O45  1  0.00820000  0.05000000  0.11100000  1
  O  O46  1  0.62580000  0.13390000  0.73510000  1
  O  O47  1  0.47480000  0.03200000  0.86600000  1
  O  O48  1  0.07850000  0.23230000  0.82880000  1
  O  O49  1  0.19290000  0.26550000  0.97850000  1
  O  O50  1  0.24290000  0.88040000  0.82740000  1
  O  O51  1  0.99180000  0.95000000  0.88900000  1
  O  O52  1  0.37420000  0.86610000  0.26490000  1
  O  O53  1  0.52520000  0.96800000  0.13400000  1
