# generated using pymatgen
data_HC2O
_symmetry_space_group_name_H-M   'P 1'
_cell_length_a   8.60060000
_cell_length_b   10.17300000
_cell_length_c   11.12500000
_cell_angle_alpha   65.11000000
_cell_angle_beta   71.80000000
_cell_angle_gamma   78.86000000
_symmetry_Int_Tables_number   1
_chemical_formula_structural   HC2O
_chemical_formula_sum   'H12 C24 O12'
_cell_volume   836.63150430
_cell_formula_units_Z   12
loop_
 _symmetry_equiv_pos_site_id
 _symmetry_equiv_pos_as_xyz
  1  'x, y, z'
loop_
 _atom_site_type_symbol
 _atom_site_label
 _atom_site_symmetry_multiplicity
 _atom_site_fract_x
 _atom_site_fract_y
 _atom_site_fract_z
 _atom_site_occupancy
  H  H0  1  0.89450000  0.99990000  0.69510000  1
  H  H1  1  0.96610000  0.21070000  0.35440000  1
  H  H2  1  0.51080000  0.43680000  0.83910000  1
  H  H3  1  0.65920000  0.66610000  0.92980000  1
  H  H4  1  0.30300000  0.10930000  0.09090000  1
  H  H5  1  0.64590000  0.15170000  0.82890000  1
  H  H6  1  0.10550000  0.00010000  0.30490000  1
  H  H7  1  0.03390000  0.78930000  0.64560000  1
  H  H8  1  0.48920000  0.56320000  0.16090000  1
  H  H9  1  0.34080000  0.33390000  0.07020000  1
  H  H10  1  0.69700000  0.89070000  0.90910000  1
  H  H11  1  0.35410000  0.84830000  0.17110000  1
  C  C12  1  0.06790000  0.23590000  0.55230000  1
  C  C13  1  0.03420000  0.11470000  0.52290000  1
  C  C14  1  0.99270000  0.98420000  0.63050000  1
  C  C15  1  0.04290000  0.13270000  0.39030000  1
  C  C16  1  0.82100000  0.46000000  0.83260000  1
  C  C17  1  0.65490000  0.48180000  0.91770000  1
  C  C18  1  0.52640000  0.40920000  0.92850000  1
  C  C19  1  0.63020000  0.56950000  0.99230000  1
  C  C20  1  0.32590000  0.23200000  0.81930000  1
  C  C21  1  0.41770000  0.11160000  0.91020000  1
  C  C22  1  0.33780000  0.04020000  0.04810000  1
  C  C23  1  0.58120000  0.07040000  0.86210000  1
  C  C24  1  0.93210000  0.76410000  0.44770000  1
  C  C25  1  0.96580000  0.88530000  0.47710000  1
  C  C26  1  0.00730000  0.01580000  0.36950000  1
  C  C27  1  0.95710000  0.86730000  0.60970000  1
  C  C28  1  0.17900000  0.54000000  0.16740000  1
  C  C29  1  0.34510000  0.51820000  0.08230000  1
  C  C30  1  0.47360000  0.59080000  0.07150000  1
  C  C31  1  0.36980000  0.43050000  0.00770000  1
  C  C32  1  0.67410000  0.76800000  0.18070000  1
  C  C33  1  0.58230000  0.88840000  0.08980000  1
  C  C34  1  0.66220000  0.95980000  0.95190000  1
  C  C35  1  0.41880000  0.92960000  0.13790000  1
  O  O36  1  0.03460000  0.36800000  0.47930000  1
  O  O37  1  0.13190000  0.20420000  0.64710000  1
  O  O38  1  0.84430000  0.38030000  0.76430000  1
  O  O39  1  0.93910000  0.52260000  0.82580000  1
  O  O40  1  0.17890000  0.26480000  0.86850000  1
  O  O41  1  0.39790000  0.30030000  0.69440000  1
  O  O42  1  0.96540000  0.63200000  0.52070000  1
  O  O43  1  0.86810000  0.79580000  0.35290000  1
  O  O44  1  0.15570000  0.61970000  0.23570000  1
  O  O45  1  0.06090000  0.47740000  0.17420000  1
  O  O46  1  0.82110000  0.73520000  0.13150000  1
  O  O47  1  0.60210000  0.69970000  0.30560000  1
