# generated using pymatgen
data_Gd
_symmetry_space_group_name_H-M   'P 1'
_cell_length_a   8.60060000
_cell_length_b   10.17300000
_cell_length_c   11.12500000
_cell_angle_alpha   65.11000000
_cell_angle_beta   71.80000000
_cell_angle_gamma   78.86000000
_symmetry_Int_Tables_number   1
_chemical_formula_structural   Gd
_chemical_formula_sum   Gd2
_cell_volume   836.63150430
_cell_formula_units_Z   2
loop_
 _symmetry_equiv_pos_site_id
 _symmetry_equiv_pos_as_xyz
  1  'x, y, z'
loop_
 _atom_site_type_symbol
 _atom_site_label
 _atom_site_symmetry_multiplicity
 _atom_site_fract_x
 _atom_site_fract_y
 _atom_site_fract_z
 _atom_site_occupancy
  Gd  Gd0  1  0.13188000  0.43942000  0.65371000  1
  Gd  Gd1  1  0.86812000  0.56058000  0.34629000  1
