# generated using pymatgen
data_GdO7
_symmetry_space_group_name_H-M   'P 1'
_cell_length_a   8.60060000
_cell_length_b   10.17300000
_cell_length_c   11.12500000
_cell_angle_alpha   65.11000000
_cell_angle_beta   71.80000000
_cell_angle_gamma   78.86000000
_symmetry_Int_Tables_number   1
_chemical_formula_structural   GdO7
_chemical_formula_sum   'Gd1 O7'
_cell_volume   836.63150430
_cell_formula_units_Z   1
loop_
 _symmetry_equiv_pos_site_id
 _symmetry_equiv_pos_as_xyz
  1  'x, y, z'
loop_
 _atom_site_type_symbol
 _atom_site_label
 _atom_site_symmetry_multiplicity
 _atom_site_fract_x
 _atom_site_fract_y
 _atom_site_fract_z
 _atom_site_occupancy
  Gd  Gd0  1  0.86812000  0.56058000  0.34629000  1
  O  O1  1  1.03460000  0.36800000  0.47930000  1
  O  O2  1  0.96540000  0.63200000  0.52070000  1
  O  O3  1  0.86810000  0.79580000  0.35290000  1
  O  O4  1  1.15570000  0.61970000  0.23570000  1
  O  O5  1  1.06090000  0.47740000  0.17420000  1
  O  O6  1  0.82110000  0.73520000  0.13150000  1
  O  O7  1  0.60210000  0.69970000  0.30560000  1
