# generated using pymatgen
data_BaO6
_symmetry_space_group_name_H-M   'P 1'
_cell_length_a   7.49590000
_cell_length_b   10.60920000
_cell_length_c   10.86570000
_cell_angle_alpha   119.22200000
_cell_angle_beta   110.17800000
_cell_angle_gamma   90.00000000
_symmetry_Int_Tables_number   1
_chemical_formula_structural   BaO6
_chemical_formula_sum   'Ba1 O6'
_cell_volume   692.72807037
_cell_formula_units_Z   1
loop_
 _symmetry_equiv_pos_site_id
 _symmetry_equiv_pos_as_xyz
  1  'x, y, z'
loop_
 _atom_site_type_symbol
 _atom_site_label
 _atom_site_symmetry_multiplicity
 _atom_site_fract_x
 _atom_site_fract_y
 _atom_site_fract_z
 _atom_site_occupancy
  Ba  Ba0  1  0.33312000  0.61751000  0.50000000  1
  O  O1  1  0.53595000  0.44461000  0.32150000  1
  O  O2  1  0.21445000  0.55539000  0.67850000  1
  O  O3  1  0.19809000  0.62259000  0.23618000  1
  O  O4  1  0.03595000  0.37689000  0.32150000  1
  O  O5  1  0.46191000  0.88641000  0.76382000  1
  O  O6  1  0.71445000  0.62311000  0.67850000  1
