# generated using pymatgen
data_H3C6NO3
_symmetry_space_group_name_H-M   'P 1'
_cell_length_a   7.49590000
_cell_length_b   10.60920000
_cell_length_c   10.86570000
_cell_angle_alpha   119.22200000
_cell_angle_beta   110.17800000
_cell_angle_gamma   90.00000000
_symmetry_Int_Tables_number   1
_chemical_formula_structural   H3C6NO3
_chemical_formula_sum   'H12 C24 N4 O12'
_cell_volume   692.72807037
_cell_formula_units_Z   4
loop_
 _symmetry_equiv_pos_site_id
 _symmetry_equiv_pos_as_xyz
  1  'x, y, z'
loop_
 _atom_site_type_symbol
 _atom_site_label
 _atom_site_symmetry_multiplicity
 _atom_site_fract_x
 _atom_site_fract_y
 _atom_site_fract_z
 _atom_site_occupancy
  H  H0  1  0.38910000  0.18400000  0.07200000  1
  H  H1  1  0.14690000  0.02420000  0.83280000  1
  H  H2  1  0.95650000  0.11520000  0.69180000  1
  H  H3  1  0.31710000  0.81600000  0.92800000  1
  H  H4  1  0.31410000  0.97580000  0.16720000  1
  H  H5  1  0.26470000  0.88480000  0.30820000  1
  H  H6  1  0.88910000  0.38800000  0.07200000  1
  H  H7  1  0.64690000  0.30860000  0.83280000  1
  H  H8  1  0.45650000  0.07660000  0.69180000  1
  H  H9  1  0.81710000  0.61200000  0.92800000  1
  H  H10  1  0.81410000  0.69140000  0.16720000  1
  H  H11  1  0.76470000  0.92340000  0.30820000  1
  C  C12  1  0.23477000  0.42007000  0.97634000  1
  C  C13  1  0.35211000  0.36781000  0.06422000  1
  C  C14  1  0.31561000  0.22001000  0.01242000  1
  C  C15  1  0.16849000  0.12519000  0.87098000  1
  C  C16  1  0.05485000  0.17955000  0.78710000  1
  C  C17  1  0.51538000  0.47318000  0.21796000  1
  C  C18  1  0.25843000  0.57993000  0.02366000  1
  C  C19  1  0.28789000  0.63219000  0.93578000  1
  C  C20  1  0.30319000  0.77999000  0.98758000  1
  C  C21  1  0.29751000  0.87481000  0.12902000  1
  C  C22  1  0.26775000  0.82045000  0.21290000  1
  C  C23  1  0.29742000  0.52682000  0.78204000  1
  C  C24  1  0.73477000  0.05627000  0.97634000  1
  C  C25  1  0.85211000  0.19641000  0.06422000  1
  C  C26  1  0.81561000  0.29241000  0.01242000  1
  C  C27  1  0.66849000  0.24579000  0.87098000  1
  C  C28  1  0.55485000  0.10755000  0.78710000  1
  C  C29  1  0.01538000  0.24478000  0.21796000  1
  C  C30  1  0.75843000  0.94373000  0.02366000  1
  C  C31  1  0.78789000  0.80359000  0.93578000  1
  C  C32  1  0.80319000  0.70759000  0.98758000  1
  C  C33  1  0.79751000  0.75421000  0.12902000  1
  C  C34  1  0.76775000  0.89245000  0.21290000  1
  C  C35  1  0.79742000  0.75522000  0.78204000  1
  N  N36  1  0.08403000  0.32613000  0.84146000  1
  N  N37  1  0.24257000  0.67387000  0.15854000  1
  N  N38  1  0.58403000  0.01533000  0.84146000  1
  N  N39  1  0.74257000  0.98467000  0.15854000  1
  O  O40  1  0.61558000  0.57619000  0.23216000  1
  O  O41  1  0.53595000  0.44461000  0.32150000  1
  O  O42  1  0.96191000  0.37741000  0.76382000  1
  O  O43  1  0.38342000  0.42381000  0.76784000  1
  O  O44  1  0.21445000  0.55539000  0.67850000  1
  O  O45  1  0.19809000  0.62259000  0.23618000  1
  O  O46  1  0.11558000  0.15597000  0.23216000  1
  O  O47  1  0.03595000  0.37689000  0.32150000  1
  O  O48  1  0.46191000  0.88641000  0.76382000  1
  O  O49  1  0.88342000  0.84403000  0.76784000  1
  O  O50  1  0.71445000  0.62311000  0.67850000  1
  O  O51  1  0.69809000  0.11359000  0.23618000  1
