# generated using pymatgen
data_HCO2
_symmetry_space_group_name_H-M   'P 1'
_cell_length_a   7.26420000
_cell_length_b   7.26420000
_cell_length_c   8.21230000
_cell_angle_alpha   90.00000000
_cell_angle_beta   90.00000000
_cell_angle_gamma   120.00000000
_symmetry_Int_Tables_number   1
_chemical_formula_structural   HCO2
_chemical_formula_sum   'H6 C6 O12'
_cell_volume   375.29348333
_cell_formula_units_Z   6
loop_
 _symmetry_equiv_pos_site_id
 _symmetry_equiv_pos_as_xyz
  1  'x, y, z'
loop_
 _atom_site_type_symbol
 _atom_site_label
 _atom_site_symmetry_multiplicity
 _atom_site_fract_x
 _atom_site_fract_y
 _atom_site_fract_z
 _atom_site_occupancy
  H  H0  1  0.00000000  0.56830000  0.00000000  1
  H  H1  1  0.43170000  0.43170000  0.00000000  1
  H  H2  1  0.56830000  0.00000000  0.00000000  1
  H  H3  1  0.00000000  0.43170000  0.50000000  1
  H  H4  1  0.56830000  0.56830000  0.50000000  1
  H  H5  1  0.43170000  0.00000000  0.50000000  1
  C  C6  1  0.00000000  0.44030000  0.00000000  1
  C  C7  1  0.55970000  0.55970000  0.00000000  1
  C  C8  1  0.44030000  0.00000000  0.00000000  1
  C  C9  1  0.00000000  0.55970000  0.50000000  1
  C  C10  1  0.44030000  0.44030000  0.50000000  1
  C  C11  1  0.55970000  0.00000000  0.50000000  1
  O  O12  1  0.89060000  0.31007000  0.89400000  1
  O  O13  1  0.68993000  0.58053000  0.89400000  1
  O  O14  1  0.41947000  0.10940000  0.89400000  1
  O  O15  1  0.10940000  0.68993000  0.39400000  1
  O  O16  1  0.31007000  0.41947000  0.39400000  1
  O  O17  1  0.58053000  0.89060000  0.39400000  1
  O  O18  1  0.31007000  0.89060000  0.10600000  1
  O  O19  1  0.58053000  0.68993000  0.10600000  1
  O  O20  1  0.10940000  0.41947000  0.10600000  1
  O  O21  1  0.68993000  0.10940000  0.60600000  1
  O  O22  1  0.41947000  0.31007000  0.60600000  1
  O  O23  1  0.89060000  0.58053000  0.60600000  1
