# generated using pymatgen
data_NdN2O5
_symmetry_space_group_name_H-M   'P 1'
_cell_length_a   6.16450000
_cell_length_b   10.07400000
_cell_length_c   13.50300000
_cell_angle_alpha   68.95100000
_cell_angle_beta   80.87200000
_cell_angle_gamma   76.66700000
_symmetry_Int_Tables_number   1
_chemical_formula_structural   NdN2O5
_chemical_formula_sum   'Nd1 N2 O5'
_cell_volume   758.84627012
_cell_formula_units_Z   1
loop_
 _symmetry_equiv_pos_site_id
 _symmetry_equiv_pos_as_xyz
  1  'x, y, z'
loop_
 _atom_site_type_symbol
 _atom_site_label
 _atom_site_symmetry_multiplicity
 _atom_site_fract_x
 _atom_site_fract_y
 _atom_site_fract_z
 _atom_site_occupancy
  Nd  Nd0  1  0.82878000  0.61541000  0.19666000  1
  N  N1  1  0.94020000  0.86590000  0.05440000  1
  N  N2  1  0.59240000  0.54570000  0.39460000  1
  O  O3  1  1.21210000  0.65430000  0.18460000  1
  O  O4  1  0.47380000  0.78760000  0.14960000  1
  O  O5  1  1.01180000  0.43090000  0.34380000  1
  O  O6  1  1.08290000  0.43080000  0.12890000  1
  O  O7  1  0.77940000  0.63690000  0.01220000  1
