# generated using pymatgen
data_NdN2O5
_symmetry_space_group_name_H-M   'P 1'
_cell_length_a   6.16450000
_cell_length_b   10.07400000
_cell_length_c   13.50300000
_cell_angle_alpha   68.95100000
_cell_angle_beta   80.87200000
_cell_angle_gamma   76.66700000
_symmetry_Int_Tables_number   1
_chemical_formula_structural   NdN2O5
_chemical_formula_sum   'Nd1 N2 O5'
_cell_volume   758.84627012
_cell_formula_units_Z   1
loop_
 _symmetry_equiv_pos_site_id
 _symmetry_equiv_pos_as_xyz
  1  'x, y, z'
loop_
 _atom_site_type_symbol
 _atom_site_label
 _atom_site_symmetry_multiplicity
 _atom_site_fract_x
 _atom_site_fract_y
 _atom_site_fract_z
 _atom_site_occupancy
  Nd  Nd0  1  0.17122000  0.38459000  0.80335000  1
  N  N1  1  0.05980000  0.13410000  0.94560000  1
  N  N2  1  0.40760000  0.45430000  0.60540000  1
  O  O3  1  0.22060000  0.36310000  0.98780000  1
  O  O4  1  -0.21210000  0.34570000  0.81540000  1
  O  O5  1  0.52620000  0.21240000  0.85040000  1
  O  O6  1  -0.01180000  0.56910000  0.65620000  1
  O  O7  1  -0.08290000  0.56920000  0.87110000  1
