# generated using pymatgen
data_H2C7(NO3)2
_symmetry_space_group_name_H-M   'P 1'
_cell_length_a   6.16450000
_cell_length_b   10.07400000
_cell_length_c   13.50300000
_cell_angle_alpha   68.95100000
_cell_angle_beta   80.87200000
_cell_angle_gamma   76.66700000
_symmetry_Int_Tables_number   1
_chemical_formula_structural   H2C7(NO3)2
_chemical_formula_sum   'H4 C14 N4 O12'
_cell_volume   758.84627012
_cell_formula_units_Z   2
loop_
 _symmetry_equiv_pos_site_id
 _symmetry_equiv_pos_as_xyz
  1  'x, y, z'
loop_
 _atom_site_type_symbol
 _atom_site_label
 _atom_site_symmetry_multiplicity
 _atom_site_fract_x
 _atom_site_fract_y
 _atom_site_fract_z
 _atom_site_occupancy
  H  H0  1  0.32390000  0.04690000  0.02680000  1
  H  H1  1  0.70160000  0.32710000  0.62930000  1
  H  H2  1  0.67610000  0.95310000  0.97320000  1
  H  H3  1  0.29840000  0.67290000  0.37070000  1
  C  C4  1  0.28380000  0.76950000  0.14050000  1
  C  C5  1  0.13360000  0.89500000  0.06820000  1
  C  C6  1  0.19060000  0.02940000  0.01450000  1
  C  C7  1  0.94690000  0.38420000  0.44090000  1
  C  C8  1  0.71020000  0.44510000  0.47300000  1
  C  C9  1  0.61640000  0.39880000  0.57750000  1
  C  C10  1  0.08730000  0.44030000  0.03380000  1
  C  C11  1  0.71620000  0.23050000  0.85950000  1
  C  C12  1  0.86640000  0.10500000  0.93180000  1
  C  C13  1  0.80940000  0.97060000  0.98550000  1
  C  C14  1  0.05310000  0.61580000  0.55910000  1
  C  C15  1  0.28980000  0.55490000  0.52700000  1
  C  C16  1  0.38360000  0.60120000  0.42250000  1
  C  C17  1  0.91270000  0.55970000  0.96620000  1
  N  N18  1  0.94020000  0.86590000  0.05440000  1
  N  N19  1  0.59240000  0.54570000  0.39460000  1
  N  N20  1  0.05980000  0.13410000  0.94560000  1
  N  N21  1  0.40760000  0.45430000  0.60540000  1
  O  O22  1  0.21210000  0.65430000  0.18460000  1
  O  O23  1  0.47380000  0.78760000  0.14960000  1
  O  O24  1  0.01180000  0.43090000  0.34380000  1
  O  O25  1  0.06470000  0.29250000  0.51140000  1
  O  O26  1  0.08290000  0.43080000  0.12890000  1
  O  O27  1  0.22060000  0.36310000  0.98780000  1
  O  O28  1  0.78790000  0.34570000  0.81540000  1
  O  O29  1  0.52620000  0.21240000  0.85040000  1
  O  O30  1  0.98820000  0.56910000  0.65620000  1
  O  O31  1  0.93530000  0.70750000  0.48860000  1
  O  O32  1  0.91710000  0.56920000  0.87110000  1
  O  O33  1  0.77940000  0.63690000  0.01220000  1
