# generated using pymatgen
data_Nd
_symmetry_space_group_name_H-M   'P 1'
_cell_length_a   6.16450000
_cell_length_b   10.07400000
_cell_length_c   13.50300000
_cell_angle_alpha   68.95100000
_cell_angle_beta   80.87200000
_cell_angle_gamma   76.66700000
_symmetry_Int_Tables_number   1
_chemical_formula_structural   Nd
_chemical_formula_sum   Nd2
_cell_volume   758.84627012
_cell_formula_units_Z   2
loop_
 _symmetry_equiv_pos_site_id
 _symmetry_equiv_pos_as_xyz
  1  'x, y, z'
loop_
 _atom_site_type_symbol
 _atom_site_label
 _atom_site_symmetry_multiplicity
 _atom_site_fract_x
 _atom_site_fract_y
 _atom_site_fract_z
 _atom_site_occupancy
  Nd  Nd0  1  0.82878000  0.61541000  0.19666000  1
  Nd  Nd1  1  0.17122000  0.38459000  0.80335000  1
