# generated using pymatgen
data_ZrO8
_symmetry_space_group_name_H-M   'P 1'
_cell_length_a   8.92000000
_cell_length_b   9.17670000
_cell_length_c   9.17670000
_cell_angle_alpha   76.33710000
_cell_angle_beta   60.92110000
_cell_angle_gamma   60.92120000
_symmetry_Int_Tables_number   1
_chemical_formula_structural   ZrO8
_chemical_formula_sum   'Zr1 O8'
_cell_volume   573.73688846
_cell_formula_units_Z   1
loop_
 _symmetry_equiv_pos_site_id
 _symmetry_equiv_pos_as_xyz
  1  'x, y, z'
loop_
 _atom_site_type_symbol
 _atom_site_label
 _atom_site_symmetry_multiplicity
 _atom_site_fract_x
 _atom_site_fract_y
 _atom_site_fract_z
 _atom_site_occupancy
  Zr  Zr0  1  0.00000000  0.00000000  0.00000000  1
  O  O1  1  -0.20360000  0.10440000  -0.11400000  1
  O  O2  1  0.05810000  0.18920000  -0.18180000  1
  O  O3  1  -0.21320000  -0.10440000  0.11400000  1
  O  O4  1  0.06550000  -0.18920000  0.18180000  1
  O  O5  1  0.31760000  -0.11400000  -0.10440000  1
  O  O6  1  0.12370000  -0.18180000  -0.18920000  1
  O  O7  1  0.09920000  0.11400000  0.10440000  1
  O  O8  1  -0.24730000  0.18180000  0.18920000  1
