# generated using pymatgen
data_CO2
_symmetry_space_group_name_H-M   'P 1'
_cell_length_a   8.92000000
_cell_length_b   9.17670000
_cell_length_c   9.17670000
_cell_angle_alpha   76.33710000
_cell_angle_beta   60.92110000
_cell_angle_gamma   60.92120000
_symmetry_Int_Tables_number   1
_chemical_formula_structural   CO2
_chemical_formula_sum   'C8 O16'
_cell_volume   573.73688846
_cell_formula_units_Z   8
loop_
 _symmetry_equiv_pos_site_id
 _symmetry_equiv_pos_as_xyz
  1  'x, y, z'
loop_
 _atom_site_type_symbol
 _atom_site_label
 _atom_site_symmetry_multiplicity
 _atom_site_fract_x
 _atom_site_fract_y
 _atom_site_fract_z
 _atom_site_occupancy
  C  C0  1  0.80240000  0.21820000  0.77800000  1
  C  C1  1  0.95760000  0.27140000  0.73820000  1
  C  C2  1  0.79860000  0.78180000  0.22200000  1
  C  C3  1  0.96720000  0.72860000  0.26180000  1
  C  C4  1  0.41960000  0.77800000  0.78180000  1
  C  C5  1  0.30420000  0.73820000  0.72860000  1
  C  C6  1  0.97940000  0.22200000  0.21820000  1
  C  C7  1  0.77100000  0.26180000  0.27140000  1
  O  O8  1  0.79640000  0.10440000  0.88600000  1
  O  O9  1  0.05810000  0.18920000  0.81820000  1
  O  O10  1  0.70050000  0.28830000  0.70370000  1
  O  O11  1  0.97120000  0.38450000  0.63730000  1
  O  O12  1  0.78680000  0.89560000  0.11400000  1
  O  O13  1  0.06550000  0.81080000  0.18180000  1
  O  O14  1  0.69250000  0.71170000  0.29630000  1
  O  O15  1  0.99300000  0.61550000  0.36270000  1
  O  O16  1  0.31760000  0.88600000  0.89560000  1
  O  O17  1  0.12370000  0.81820000  0.81080000  1
  O  O18  1  0.59580000  0.70370000  0.71170000  1
  O  O19  1  0.39150000  0.63730000  0.61550000  1
  O  O20  1  0.09920000  0.11400000  0.10440000  1
  O  O21  1  0.75270000  0.18180000  0.18920000  1
  O  O22  1  0.01120000  0.29630000  0.28830000  1
  O  O23  1  0.64430000  0.36270000  0.38450000  1
