# generated using pymatgen
data_PO4
_symmetry_space_group_name_H-M   'P 1'
_cell_length_a   13.51370000
_cell_length_b   9.01190000
_cell_length_c   9.63570000
_cell_angle_alpha   90.00000000
_cell_angle_beta   134.50700000
_cell_angle_gamma   90.00000000
_symmetry_Int_Tables_number   1
_chemical_formula_structural   PO4
_chemical_formula_sum   'P8 O32'
_cell_volume   836.88120419
_cell_formula_units_Z   8
loop_
 _symmetry_equiv_pos_site_id
 _symmetry_equiv_pos_as_xyz
  1  'x, y, z'
loop_
 _atom_site_type_symbol
 _atom_site_label
 _atom_site_symmetry_multiplicity
 _atom_site_fract_x
 _atom_site_fract_y
 _atom_site_fract_z
 _atom_site_occupancy
  P  P0  1  0.33315000  0.60284000  0.22063000  1
  P  P1  1  0.83315000  0.10284000  0.22063000  1
  P  P2  1  0.66685000  0.60284000  0.27937000  1
  P  P3  1  0.16685000  0.10284000  0.27937000  1
  P  P4  1  0.66685000  0.39716000  0.77937000  1
  P  P5  1  0.16685000  0.89716000  0.77937000  1
  P  P6  1  0.33315000  0.39716000  0.72063000  1
  P  P7  1  0.83315000  0.89716000  0.72063000  1
  O  O8  1  0.32510000  0.56950000  0.05740000  1
  O  O9  1  0.46560000  0.68620000  0.38960000  1
  O  O10  1  0.20760000  0.69340000  0.14430000  1
  O  O11  1  0.32040000  0.45320000  0.28060000  1
  O  O12  1  0.82510000  0.06950000  0.05740000  1
  O  O13  1  0.96560000  0.18620000  0.38960000  1
  O  O14  1  0.70760000  0.19340000  0.14430000  1
  O  O15  1  0.82040000  0.95320000  0.28060000  1
  O  O16  1  0.67490000  0.56950000  0.44260000  1
  O  O17  1  0.53440000  0.68620000  0.11040000  1
  O  O18  1  0.79240000  0.69340000  0.35570000  1
  O  O19  1  0.67960000  0.45320000  0.21940000  1
  O  O20  1  0.17490000  0.06950000  0.44260000  1
  O  O21  1  0.03440000  0.18620000  0.11040000  1
  O  O22  1  0.29240000  0.19340000  0.35570000  1
  O  O23  1  0.17960000  0.95320000  0.21940000  1
  O  O24  1  0.67490000  0.43050000  0.94260000  1
  O  O25  1  0.53440000  0.31380000  0.61040000  1
  O  O26  1  0.79240000  0.30660000  0.85570000  1
  O  O27  1  0.67960000  0.54680000  0.71940000  1
  O  O28  1  0.17490000  0.93050000  0.94260000  1
  O  O29  1  0.03440000  0.81380000  0.61040000  1
  O  O30  1  0.29240000  0.80660000  0.85570000  1
  O  O31  1  0.17960000  0.04680000  0.71940000  1
  O  O32  1  0.32510000  0.43050000  0.55740000  1
  O  O33  1  0.46560000  0.31380000  0.88960000  1
  O  O34  1  0.20760000  0.30660000  0.64430000  1
  O  O35  1  0.32040000  0.54680000  0.78060000  1
  O  O36  1  0.82510000  0.93050000  0.55740000  1
  O  O37  1  0.96560000  0.81380000  0.88960000  1
  O  O38  1  0.70760000  0.80660000  0.64430000  1
  O  O39  1  0.82040000  0.04680000  0.78060000  1
