# generated using pymatgen
data_Be
_symmetry_space_group_name_H-M   'P 1'
_cell_length_a   13.51370000
_cell_length_b   9.01190000
_cell_length_c   9.63570000
_cell_angle_alpha   90.00000000
_cell_angle_beta   134.50700000
_cell_angle_gamma   90.00000000
_symmetry_Int_Tables_number   1
_chemical_formula_structural   Be
_chemical_formula_sum   Be8
_cell_volume   836.88120419
_cell_formula_units_Z   8
loop_
 _symmetry_equiv_pos_site_id
 _symmetry_equiv_pos_as_xyz
  1  'x, y, z'
loop_
 _atom_site_type_symbol
 _atom_site_label
 _atom_site_symmetry_multiplicity
 _atom_site_fract_x
 _atom_site_fract_y
 _atom_site_fract_z
 _atom_site_occupancy
  Be  Be0  1  0.36920000  0.64780000  0.95780000  1
  Be  Be1  1  0.86920000  0.14780000  0.95780000  1
  Be  Be2  1  0.63080000  0.64780000  0.54220000  1
  Be  Be3  1  0.13080000  0.14780000  0.54220000  1
  Be  Be4  1  0.63080000  0.35220000  0.04220000  1
  Be  Be5  1  0.13080000  0.85220000  0.04220000  1
  Be  Be6  1  0.36920000  0.35220000  0.45780000  1
  Be  Be7  1  0.86920000  0.85220000  0.45780000  1
