# generated using pymatgen
data_BeO4
_symmetry_space_group_name_H-M   'P 1'
_cell_length_a   13.51370000
_cell_length_b   9.01190000
_cell_length_c   9.63570000
_cell_angle_alpha   90.00000000
_cell_angle_beta   134.50700000
_cell_angle_gamma   90.00000000
_symmetry_Int_Tables_number   1
_chemical_formula_structural   BeO4
_chemical_formula_sum   'Be1 O4'
_cell_volume   836.88120419
_cell_formula_units_Z   1
loop_
 _symmetry_equiv_pos_site_id
 _symmetry_equiv_pos_as_xyz
  1  'x, y, z'
loop_
 _atom_site_type_symbol
 _atom_site_label
 _atom_site_symmetry_multiplicity
 _atom_site_fract_x
 _atom_site_fract_y
 _atom_site_fract_z
 _atom_site_occupancy
  Be  Be0  1  0.63080000  0.64780000  0.54220000  1
  O  O1  1  0.46560000  0.68620000  0.38960000  1
  O  O2  1  0.67490000  0.56950000  0.44260000  1
  O  O3  1  0.67960000  0.54680000  0.71940000  1
  O  O4  1  0.70760000  0.80660000  0.64430000  1
