# generated using pymatgen
data_CoO2
_symmetry_space_group_name_H-M   'P 1'
_cell_length_a   8.29650000
_cell_length_b   8.58330000
_cell_length_c   9.87600000
_cell_angle_alpha   96.56400000
_cell_angle_beta   102.93800000
_cell_angle_gamma   94.19900000
_symmetry_Int_Tables_number   1
_chemical_formula_structural   CoO2
_chemical_formula_sum   'Co1 O2'
_cell_volume   677.38028728
_cell_formula_units_Z   1
loop_
 _symmetry_equiv_pos_site_id
 _symmetry_equiv_pos_as_xyz
  1  'x, y, z'
loop_
 _atom_site_type_symbol
 _atom_site_label
 _atom_site_symmetry_multiplicity
 _atom_site_fract_x
 _atom_site_fract_y
 _atom_site_fract_z
 _atom_site_occupancy
  Co  Co0  1  0.00000000  0.50000000  0.50000000  1
  O  O1  1  0.17720000  0.69540000  0.51770000  1
  O  O2  1  -0.17720000  0.30460000  0.48230000  1
