# generated using pymatgen
data_UO5
_symmetry_space_group_name_H-M   'P 1'
_cell_length_a   8.29650000
_cell_length_b   8.58330000
_cell_length_c   9.87600000
_cell_angle_alpha   96.56400000
_cell_angle_beta   102.93800000
_cell_angle_gamma   94.19900000
_symmetry_Int_Tables_number   1
_chemical_formula_structural   UO5
_chemical_formula_sum   'U1 O5'
_cell_volume   677.38028728
_cell_formula_units_Z   1
loop_
 _symmetry_equiv_pos_site_id
 _symmetry_equiv_pos_as_xyz
  1  'x, y, z'
loop_
 _atom_site_type_symbol
 _atom_site_label
 _atom_site_symmetry_multiplicity
 _atom_site_fract_x
 _atom_site_fract_y
 _atom_site_fract_z
 _atom_site_occupancy
  U  U0  1  0.57934000  0.45655000  0.83417000  1
  O  O1  1  0.52790000  0.66780000  0.70040000  1
  O  O2  1  0.43140000  0.62100000  0.95250000  1
  O  O3  1  0.68680000  0.40880000  0.63190000  1
  O  O4  1  0.71720000  0.22180000  0.84640000  1
  O  O5  1  0.56860000  0.37900000  1.04750000  1
