# generated using pymatgen
data_H4C5N2
_symmetry_space_group_name_H-M   'P 1'
_cell_length_a   3.88110000
_cell_length_b   15.40050000
_cell_length_c   15.40050000
_cell_angle_alpha   89.09030000
_cell_angle_beta   82.76160000
_cell_angle_gamma   82.76110000
_symmetry_Int_Tables_number   1
_chemical_formula_structural   H4C5N2
_chemical_formula_sum   'H32 C40 N16'
_cell_volume   905.88699532
_cell_formula_units_Z   8
loop_
 _symmetry_equiv_pos_site_id
 _symmetry_equiv_pos_as_xyz
  1  'x, y, z'
loop_
 _atom_site_type_symbol
 _atom_site_label
 _atom_site_symmetry_multiplicity
 _atom_site_fract_x
 _atom_site_fract_y
 _atom_site_fract_z
 _atom_site_occupancy
  H  H0  1  0.64560000  0.63620000  0.45060000  1
  H  H1  1  0.01950000  0.33480000  0.38620000  1
  H  H2  1  0.73100000  0.34040000  0.35360000  1
  H  H3  1  0.70300000  0.29090000  0.42510000  1
  H  H4  1  0.73240000  0.86380000  0.04940000  1
  H  H5  1  0.74050000  0.16520000  0.11380000  1
  H  H6  1  0.42500000  0.15960000  0.14640000  1
  H  H7  1  0.41900000  0.20910000  0.07490000  1
  H  H8  1  0.09620000  0.04940000  0.63620000  1
  H  H9  1  0.40570000  0.11380000  0.33480000  1
  H  H10  1  0.08460000  0.14640000  0.34040000  1
  H  H11  1  0.12810000  0.07490000  0.29090000  1
  H  H12  1  0.78180000  0.45060000  0.86380000  1
  H  H13  1  0.85430000  0.38620000  0.16520000  1
  H  H14  1  0.57140000  0.35360000  0.15960000  1
  H  H15  1  0.49390000  0.42510000  0.20910000  1
  H  H16  1  0.35440000  0.36380000  0.54940000  1
  H  H17  1  0.98050000  0.66520000  0.61380000  1
  H  H18  1  0.26900000  0.65960000  0.64640000  1
  H  H19  1  0.29700000  0.70910000  0.57490000  1
  H  H20  1  0.26760000  0.13620000  0.95060000  1
  H  H21  1  0.25950000  0.83480000  0.88620000  1
  H  H22  1  0.57500000  0.84040000  0.85360000  1
  H  H23  1  0.58100000  0.79090000  0.92510000  1
  H  H24  1  0.90380000  0.95060000  0.36380000  1
  H  H25  1  0.59430000  0.88620000  0.66520000  1
  H  H26  1  0.91540000  0.85360000  0.65960000  1
  H  H27  1  0.87190000  0.92510000  0.70910000  1
  H  H28  1  0.21820000  0.54940000  0.13620000  1
  H  H29  1  0.14570000  0.61380000  0.83480000  1
  H  H30  1  0.42860000  0.64640000  0.84040000  1
  H  H31  1  0.50610000  0.57490000  0.79090000  1
  C  C32  1  0.06670000  0.58060000  0.32120000  1
  C  C33  1  0.73790000  0.50480000  0.42340000  1
  C  C34  1  0.64380000  0.42070000  0.45410000  1
  C  C35  1  0.58590000  0.58220000  0.47180000  1
  C  C36  1  0.79550000  0.33900000  0.40360000  1
  C  C37  1  0.96850000  0.91940000  0.17880000  1
  C  C38  1  0.66610000  0.99520000  0.07660000  1
  C  C39  1  0.51860000  0.07930000  0.04590000  1
  C  C40  1  0.63990000  0.91780000  0.02820000  1
  C  C41  1  0.53810000  0.16100000  0.09640000  1
  C  C42  1  0.38790000  0.17880000  0.58060000  1
  C  C43  1  0.16130000  0.07660000  0.50480000  1
  C  C44  1  0.09790000  0.04590000  0.42070000  1
  C  C45  1  0.05770000  0.02820000  0.58220000  1
  C  C46  1  0.19910000  0.09640000  0.33900000  1
  C  C47  1  0.14730000  0.32120000  0.91940000  1
  C  C48  1  0.74270000  0.42340000  0.99520000  1
  C  C49  1  0.56450000  0.45410000  0.07930000  1
  C  C50  1  0.66810000  0.47180000  0.91780000  1
  C  C51  1  0.63450000  0.40360000  0.16100000  1
  C  C52  1  0.93330000  0.41940000  0.67880000  1
  C  C53  1  0.26210000  0.49520000  0.57660000  1
  C  C54  1  0.35620000  0.57930000  0.54590000  1
  C  C55  1  0.41410000  0.41780000  0.52820000  1
  C  C56  1  0.20450000  0.66100000  0.59640000  1
  C  C57  1  0.03150000  0.08060000  0.82120000  1
  C  C58  1  0.33390000  0.00480000  0.92340000  1
  C  C59  1  0.48140000  0.92070000  0.95410000  1
  C  C60  1  0.36010000  0.08220000  0.97180000  1
  C  C61  1  0.46190000  0.83900000  0.90360000  1
  C  C62  1  0.61210000  0.82120000  0.41940000  1
  C  C63  1  0.83870000  0.92340000  0.49520000  1
  C  C64  1  0.90210000  0.95410000  0.57930000  1
  C  C65  1  0.94230000  0.97180000  0.41780000  1
  C  C66  1  0.80090000  0.90360000  0.66100000  1
  C  C67  1  0.85270000  0.67880000  0.08060000  1
  C  C68  1  0.25730000  0.57660000  0.00480000  1
  C  C69  1  0.43550000  0.54590000  0.92070000  1
  C  C70  1  0.33190000  0.52820000  0.08220000  1
  C  C71  1  0.36550000  0.59640000  0.83900000  1
  N  N72  1  0.17370000  0.64130000  0.28790000  1
  N  N73  1  0.96620000  0.50600000  0.35100000  1
  N  N74  1  0.10290000  0.85870000  0.21210000  1
  N  N75  1  0.82320000  0.99400000  0.14900000  1
  N  N76  1  0.46160000  0.21210000  0.64130000  1
  N  N77  1  0.31720000  0.14900000  0.50600000  1
  N  N78  1  0.31500000  0.28790000  0.85870000  1
  N  N79  1  0.97220000  0.35100000  0.99400000  1
  N  N80  1  0.82630000  0.35870000  0.71210000  1
  N  N81  1  0.03380000  0.49400000  0.64900000  1
  N  N82  1  0.89710000  0.14130000  0.78790000  1
  N  N83  1  0.17680000  0.00600000  0.85100000  1
  N  N84  1  0.53840000  0.78790000  0.35870000  1
  N  N85  1  0.68280000  0.85100000  0.49400000  1
  N  N86  1  0.68500000  0.71210000  0.14130000  1
  N  N87  1  0.02780000  0.64900000  0.00600000  1
