# generated using pymatgen
data_CuN4
_symmetry_space_group_name_H-M   'P 1'
_cell_length_a   3.88110000
_cell_length_b   15.40050000
_cell_length_c   15.40050000
_cell_angle_alpha   89.09030000
_cell_angle_beta   82.76160000
_cell_angle_gamma   82.76110000
_symmetry_Int_Tables_number   1
_chemical_formula_structural   CuN4
_chemical_formula_sum   'Cu1 N4'
_cell_volume   905.88699532
_cell_formula_units_Z   1
loop_
 _symmetry_equiv_pos_site_id
 _symmetry_equiv_pos_as_xyz
  1  'x, y, z'
loop_
 _atom_site_type_symbol
 _atom_site_label
 _atom_site_symmetry_multiplicity
 _atom_site_fract_x
 _atom_site_fract_y
 _atom_site_fract_z
 _atom_site_occupancy
  Cu  Cu0  1  0.37500000  0.75000000  0.25000000  1
  N  N1  1  0.17370000  0.64130000  0.28790000  1
  N  N2  1  0.10290000  0.85870000  0.21210000  1
  N  N3  1  0.53840000  0.78790000  0.35870000  1
  N  N4  1  0.68500000  0.71210000  0.14130000  1
