# generated using pymatgen
data_Co(NO)2
_symmetry_space_group_name_H-M   'P 1'
_cell_length_a   5.19530000
_cell_length_b   10.53000000
_cell_length_c   14.26000000
_cell_angle_alpha   74.29000000
_cell_angle_beta   89.02000000
_cell_angle_gamma   82.30000000
_symmetry_Int_Tables_number   1
_chemical_formula_structural   Co(NO)2
_chemical_formula_sum   'Co1 N2 O2'
_cell_volume   744.05150012
_cell_formula_units_Z   1
loop_
 _symmetry_equiv_pos_site_id
 _symmetry_equiv_pos_as_xyz
  1  'x, y, z'
loop_
 _atom_site_type_symbol
 _atom_site_label
 _atom_site_symmetry_multiplicity
 _atom_site_fract_x
 _atom_site_fract_y
 _atom_site_fract_z
 _atom_site_occupancy
  Co  Co0  1  0.00000000  0.50000000  0.50000000  1
  N  N1  1  -0.13690000  0.42920000  0.64348000  1
  N  N2  1  0.13690000  0.57080000  0.35652000  1
  O  O3  1  -0.17150000  0.34445000  0.46493000  1
  O  O4  1  0.17150000  0.65555000  0.53507000  1
