# generated using pymatgen
data_Co(NO2)2
_symmetry_space_group_name_H-M   'P 1'
_cell_length_a   5.19530000
_cell_length_b   10.53000000
_cell_length_c   14.26000000
_cell_angle_alpha   74.29000000
_cell_angle_beta   89.02000000
_cell_angle_gamma   82.30000000
_symmetry_Int_Tables_number   1
_chemical_formula_structural   Co(NO2)2
_chemical_formula_sum   'Co1 N2 O4'
_cell_volume   744.05150012
_cell_formula_units_Z   1
loop_
 _symmetry_equiv_pos_site_id
 _symmetry_equiv_pos_as_xyz
  1  'x, y, z'
loop_
 _atom_site_type_symbol
 _atom_site_label
 _atom_site_symmetry_multiplicity
 _atom_site_fract_x
 _atom_site_fract_y
 _atom_site_fract_z
 _atom_site_occupancy
  Co  Co0  1  0.50000000  0.00000000  0.50000000  1
  N  N1  1  0.65160000  0.08490000  0.35853000  1
  N  N2  1  0.34840000  -0.08490000  0.64147000  1
  O  O3  1  0.75400000  0.10629000  0.54753000  1
  O  O4  1  0.20390000  0.16184000  0.48837000  1
  O  O5  1  0.24600000  -0.10629000  0.45247000  1
  O  O6  1  0.79610000  -0.16184000  0.51163000  1
