# generated using pymatgen
data_H4C6NO2
_symmetry_space_group_name_H-M   'P 1'
_cell_length_a   3.65190000
_cell_length_b   12.15120000
_cell_length_c   15.07000000
_cell_angle_alpha   90.00000000
_cell_angle_beta   90.98200000
_cell_angle_gamma   90.00000000
_symmetry_Int_Tables_number   1
_chemical_formula_structural   H4C6NO2
_chemical_formula_sum   'H16 C24 N4 O8'
_cell_volume   668.63253952
_cell_formula_units_Z   4
loop_
 _symmetry_equiv_pos_site_id
 _symmetry_equiv_pos_as_xyz
  1  'x, y, z'
loop_
 _atom_site_type_symbol
 _atom_site_label
 _atom_site_symmetry_multiplicity
 _atom_site_fract_x
 _atom_site_fract_y
 _atom_site_fract_z
 _atom_site_occupancy
  H  H0  1  0.07020000  0.59360000  0.74450000  1
  H  H1  1  0.30500000  0.69270000  0.62920000  1
  H  H2  1  0.41020000  0.95440000  0.77820000  1
  H  H3  1  0.17310000  0.86400000  0.89840000  1
  H  H4  1  0.92980000  0.09360000  0.75550000  1
  H  H5  1  0.69500000  0.19270000  0.87080000  1
  H  H6  1  0.58980000  0.45440000  0.72180000  1
  H  H7  1  0.82690000  0.36400000  0.60160000  1
  H  H8  1  0.92980000  0.40640000  0.25550000  1
  H  H9  1  0.69500000  0.30730000  0.37080000  1
  H  H10  1  0.58980000  0.04560000  0.22180000  1
  H  H11  1  0.82690000  0.13600000  0.10160000  1
  H  H12  1  0.07020000  0.90640000  0.24450000  1
  H  H13  1  0.30500000  0.80730000  0.12920000  1
  H  H14  1  0.41020000  0.54560000  0.27820000  1
  H  H15  1  0.17310000  0.63600000  0.39840000  1
  C  C16  1  0.93100000  0.65910000  0.91140000  1
  C  C17  1  0.09500000  0.71760000  0.83540000  1
  C  C18  1  0.13900000  0.66830000  0.75320000  1
  C  C19  1  0.28000000  0.72760000  0.68520000  1
  C  C20  1  0.34000000  0.87950000  0.77190000  1
  C  C21  1  0.19900000  0.82650000  0.84360000  1
  C  C22  1  0.06900000  0.15910000  0.58860000  1
  C  C23  1  0.90500000  0.21760000  0.66460000  1
  C  C24  1  0.86100000  0.16830000  0.74680000  1
  C  C25  1  0.72000000  0.22760000  0.81480000  1
  C  C26  1  0.66000000  0.37950000  0.72810000  1
  C  C27  1  0.80100000  0.32650000  0.65640000  1
  C  C28  1  0.06900000  0.34090000  0.08860000  1
  C  C29  1  0.90500000  0.28240000  0.16460000  1
  C  C30  1  0.86100000  0.33170000  0.24680000  1
  C  C31  1  0.72000000  0.27240000  0.31480000  1
  C  C32  1  0.66000000  0.12050000  0.22810000  1
  C  C33  1  0.80100000  0.17350000  0.15640000  1
  C  C34  1  0.93100000  0.84090000  0.41140000  1
  C  C35  1  0.09500000  0.78240000  0.33540000  1
  C  C36  1  0.13900000  0.83170000  0.25320000  1
  C  C37  1  0.28000000  0.77240000  0.18520000  1
  C  C38  1  0.34000000  0.62050000  0.27190000  1
  C  C39  1  0.19900000  0.67350000  0.34360000  1
  N  N40  1  0.38300000  0.83070000  0.69310000  1
  N  N41  1  0.61700000  0.33070000  0.80690000  1
  N  N42  1  0.61700000  0.16930000  0.30690000  1
  N  N43  1  0.38300000  0.66930000  0.19310000  1
  O  O44  1  0.88400000  0.55380000  0.89850000  1
  O  O45  1  0.83100000  0.71110000  0.97740000  1
  O  O46  1  0.11600000  0.05380000  0.60150000  1
  O  O47  1  0.16900000  0.21110000  0.52260000  1
  O  O48  1  0.11600000  0.44620000  0.10150000  1
  O  O49  1  0.16900000  0.28890000  0.02260000  1
  O  O50  1  0.88400000  0.94620000  0.39850000  1
  O  O51  1  0.83100000  0.78890000  0.47740000  1
