# generated using pymatgen
data_Ag2NO2
_symmetry_space_group_name_H-M   'P 1'
_cell_length_a   3.65190000
_cell_length_b   12.15120000
_cell_length_c   15.07000000
_cell_angle_alpha   90.00000000
_cell_angle_beta   90.98200000
_cell_angle_gamma   90.00000000
_symmetry_Int_Tables_number   1
_chemical_formula_structural   Ag2NO2
_chemical_formula_sum   'Ag2 N1 O2'
_cell_volume   668.63253952
_cell_formula_units_Z   1
loop_
 _symmetry_equiv_pos_site_id
 _symmetry_equiv_pos_as_xyz
  1  'x, y, z'
loop_
 _atom_site_type_symbol
 _atom_site_label
 _atom_site_symmetry_multiplicity
 _atom_site_fract_x
 _atom_site_fract_y
 _atom_site_fract_z
 _atom_site_occupancy
  Ag  Ag0  1  0.60440000  0.57393000  0.07548000  1
  Ag  Ag1  1  0.39560000  0.42607000  -0.07548000  1
  N  N2  1  0.38300000  0.66930000  0.19310000  1
  O  O3  1  0.83100000  0.71110000  -0.02260000  1
  O  O4  1  0.11600000  0.44620000  0.10150000  1
