# generated using pymatgen
data_PO7
_symmetry_space_group_name_H-M   'P 1'
_cell_length_a   10.36100000
_cell_length_b   10.39000000
_cell_length_c   9.13500000
_cell_angle_alpha   90.00000000
_cell_angle_beta   90.00000000
_cell_angle_gamma   90.00000000
_symmetry_Int_Tables_number   1
_chemical_formula_structural   PO7
_chemical_formula_sum   'P8 O56'
_cell_volume   983.38996665
_cell_formula_units_Z   8
loop_
 _symmetry_equiv_pos_site_id
 _symmetry_equiv_pos_as_xyz
  1  'x, y, z'
loop_
 _atom_site_type_symbol
 _atom_site_label
 _atom_site_symmetry_multiplicity
 _atom_site_fract_x
 _atom_site_fract_y
 _atom_site_fract_z
 _atom_site_occupancy
  P  P0  1  0.10010000  0.59950000  0.19610000  1
  P  P1  1  0.39990000  0.90050000  0.19610000  1
  P  P2  1  0.89990000  0.09950000  0.30390000  1
  P  P3  1  0.60010000  0.40050000  0.30390000  1
  P  P4  1  0.89990000  0.40050000  0.80390000  1
  P  P5  1  0.60010000  0.09950000  0.80390000  1
  P  P6  1  0.10010000  0.90050000  0.69610000  1
  P  P7  1  0.39990000  0.59950000  0.69610000  1
  O  O8  1  0.00100000  0.50120000  0.24320000  1
  O  O9  1  0.06200000  0.65290000  0.04370000  1
  O  O10  1  0.84900000  0.43850000  0.95730000  1
  O  O11  1  0.05770000  0.73490000  0.20500000  1
  O  O12  1  0.92500000  0.20580000  0.18760000  1
  O  O13  1  0.20680000  0.58000000  0.31450000  1
  O  O14  1  0.73150000  0.44220000  0.29500000  1
  O  O15  1  0.49900000  0.99880000  0.24320000  1
  O  O16  1  0.43800000  0.84710000  0.04370000  1
  O  O17  1  0.65100000  0.06150000  0.95730000  1
  O  O18  1  0.44230000  0.76510000  0.20500000  1
  O  O19  1  0.57500000  0.29420000  0.18760000  1
  O  O20  1  0.29320000  0.92000000  0.31450000  1
  O  O21  1  0.76850000  0.05780000  0.29500000  1
  O  O22  1  0.99900000  0.00120000  0.25680000  1
  O  O23  1  0.93800000  0.15290000  0.45630000  1
  O  O24  1  0.15100000  0.93850000  0.54270000  1
  O  O25  1  0.94230000  0.23490000  0.29500000  1
  O  O26  1  0.07500000  0.70580000  0.31240000  1
  O  O27  1  0.79320000  0.08000000  0.18550000  1
  O  O28  1  0.26850000  0.94220000  0.20500000  1
  O  O29  1  0.50100000  0.49880000  0.25680000  1
  O  O30  1  0.56200000  0.34710000  0.45630000  1
  O  O31  1  0.34900000  0.56150000  0.54270000  1
  O  O32  1  0.55770000  0.26510000  0.29500000  1
  O  O33  1  0.42500000  0.79420000  0.31240000  1
  O  O34  1  0.70680000  0.42000000  0.18550000  1
  O  O35  1  0.23150000  0.55780000  0.20500000  1
  O  O36  1  0.99900000  0.49880000  0.75680000  1
  O  O37  1  0.93800000  0.34710000  0.95630000  1
  O  O38  1  0.15100000  0.56150000  0.04270000  1
  O  O39  1  0.94230000  0.26510000  0.79500000  1
  O  O40  1  0.07500000  0.79420000  0.81240000  1
  O  O41  1  0.79320000  0.42000000  0.68550000  1
  O  O42  1  0.26850000  0.55780000  0.70500000  1
  O  O43  1  0.50100000  0.00120000  0.75680000  1
  O  O44  1  0.56200000  0.15290000  0.95630000  1
  O  O45  1  0.34900000  0.93850000  0.04270000  1
  O  O46  1  0.55770000  0.23490000  0.79500000  1
  O  O47  1  0.42500000  0.70580000  0.81240000  1
  O  O48  1  0.70680000  0.08000000  0.68550000  1
  O  O49  1  0.23150000  0.94220000  0.70500000  1
  O  O50  1  0.00100000  0.99880000  0.74320000  1
  O  O51  1  0.06200000  0.84710000  0.54370000  1
  O  O52  1  0.84900000  0.06150000  0.45730000  1
  O  O53  1  0.05770000  0.76510000  0.70500000  1
  O  O54  1  0.92500000  0.29420000  0.68760000  1
  O  O55  1  0.20680000  0.92000000  0.81450000  1
  O  O56  1  0.73150000  0.05780000  0.79500000  1
  O  O57  1  0.49900000  0.50120000  0.74320000  1
  O  O58  1  0.43800000  0.65290000  0.54370000  1
  O  O59  1  0.65100000  0.43850000  0.45730000  1
  O  O60  1  0.44230000  0.73490000  0.70500000  1
  O  O61  1  0.57500000  0.20580000  0.68760000  1
  O  O62  1  0.29320000  0.58000000  0.81450000  1
  O  O63  1  0.76850000  0.44220000  0.79500000  1
