# generated using pymatgen
data_H3C8NO5
_symmetry_space_group_name_H-M   'P 1'
_cell_length_a   4.50540000
_cell_length_b   10.33540000
_cell_length_c   10.80170000
_cell_angle_alpha   77.93300000
_cell_angle_beta   79.23000000
_cell_angle_gamma   83.14800000
_symmetry_Int_Tables_number   1
_chemical_formula_structural   H3C8NO5
_chemical_formula_sum   'H6 C16 N2 O10'
_cell_volume   481.51579336
_cell_formula_units_Z   2
loop_
 _symmetry_equiv_pos_site_id
 _symmetry_equiv_pos_as_xyz
  1  'x, y, z'
loop_
 _atom_site_type_symbol
 _atom_site_label
 _atom_site_symmetry_multiplicity
 _atom_site_fract_x
 _atom_site_fract_y
 _atom_site_fract_z
 _atom_site_occupancy
  H  H0  1  0.87540000  0.37780000  0.83460000  1
  H  H1  1  0.57540000  0.32520000  0.21440000  1
  H  H2  1  0.27010000  0.11080000  0.00290000  1
  H  H3  1  0.12460000  0.62220000  0.16540000  1
  H  H4  1  0.42460000  0.67480000  0.78560000  1
  H  H5  1  0.72990000  0.88920000  0.99710000  1
  C  C6  1  0.57330000  0.20890000  0.76920000  1
  C  C7  1  0.57100000  0.24140000  0.89990000  1
  C  C8  1  0.75250000  0.33660000  0.90780000  1
  C  C9  1  0.75090000  0.37080000  0.02640000  1
  C  C10  1  0.57460000  0.30390000  0.13500000  1
  C  C11  1  0.39770000  0.20610000  0.12700000  1
  C  C12  1  0.39160000  0.17500000  0.00940000  1
  C  C13  1  0.21900000  0.13690000  0.25070000  1
  C  C14  1  0.42670000  0.79110000  0.23080000  1
  C  C15  1  0.42900000  0.75860000  0.10010000  1
  C  C16  1  0.24750000  0.66340000  0.09220000  1
  C  C17  1  0.24910000  0.62920000  0.97360000  1
  C  C18  1  0.42540000  0.69610000  0.86500000  1
  C  C19  1  0.60230000  0.79390000  0.87300000  1
  C  C20  1  0.60840000  0.82500000  0.99060000  1
  C  C21  1  0.78100000  0.86310000  0.74930000  1
  N  N22  1  0.92500000  0.46820000  0.04900000  1
  N  N23  1  0.07500000  0.53180000  0.95100000  1
  O  O24  1  0.78490000  0.25200000  0.68000000  1
  O  O25  1  0.36760000  0.14300000  0.75830000  1
  O  O26  1  0.05180000  0.04940000  0.24820000  1
  O  O27  1  0.71280000  0.08990000  0.49930000  1
  O  O28  1  0.24900000  0.17750000  0.34980000  1
  O  O29  1  0.21510000  0.74800000  0.32000000  1
  O  O30  1  0.63240000  0.85700000  0.24170000  1
  O  O31  1  0.94820000  0.95060000  0.75180000  1
  O  O32  1  0.28720000  0.91010000  0.50070000  1
  O  O33  1  0.75100000  0.82250000  0.65020000  1
