# generated using pymatgen
data_Gd
_symmetry_space_group_name_H-M   'P 1'
_cell_length_a   4.50540000
_cell_length_b   10.33540000
_cell_length_c   10.80170000
_cell_angle_alpha   77.93300000
_cell_angle_beta   79.23000000
_cell_angle_gamma   83.14800000
_symmetry_Int_Tables_number   1
_chemical_formula_structural   Gd
_chemical_formula_sum   Gd2
_cell_volume   481.51579336
_cell_formula_units_Z   2
loop_
 _symmetry_equiv_pos_site_id
 _symmetry_equiv_pos_as_xyz
  1  'x, y, z'
loop_
 _atom_site_type_symbol
 _atom_site_label
 _atom_site_symmetry_multiplicity
 _atom_site_fract_x
 _atom_site_fract_y
 _atom_site_fract_z
 _atom_site_occupancy
  Gd  Gd0  1  0.17178000  0.11326000  0.57849000  1
  Gd  Gd1  1  0.82822000  0.88674000  0.42151000  1
