# generated using pymatgen
data_GdO6
_symmetry_space_group_name_H-M   'P 1'
_cell_length_a   4.50540000
_cell_length_b   10.33540000
_cell_length_c   10.80170000
_cell_angle_alpha   77.93300000
_cell_angle_beta   79.23000000
_cell_angle_gamma   83.14800000
_symmetry_Int_Tables_number   1
_chemical_formula_structural   GdO6
_chemical_formula_sum   'Gd1 O6'
_cell_volume   481.51579336
_cell_formula_units_Z   1
loop_
 _symmetry_equiv_pos_site_id
 _symmetry_equiv_pos_as_xyz
  1  'x, y, z'
loop_
 _atom_site_type_symbol
 _atom_site_label
 _atom_site_symmetry_multiplicity
 _atom_site_fract_x
 _atom_site_fract_y
 _atom_site_fract_z
 _atom_site_occupancy
  Gd  Gd0  1  0.17178000  0.11326000  0.57849000  1
  O  O1  1  -0.21510000  0.25200000  0.68000000  1
  O  O2  1  0.36760000  0.14300000  0.75830000  1
  O  O3  1  0.71280000  0.08990000  0.49930000  1
  O  O4  1  0.24900000  0.17750000  0.34980000  1
  O  O5  1  -0.05180000  -0.04940000  0.75180000  1
  O  O6  1  0.28720000  -0.08990000  0.50070000  1
