# generated using pymatgen
data_H9C11(NO)2
_symmetry_space_group_name_H-M   'P 1'
_cell_length_a   8.14050000
_cell_length_b   10.52450000
_cell_length_c   11.42950000
_cell_angle_alpha   62.58640000
_cell_angle_beta   84.39390000
_cell_angle_gamma   77.75000000
_symmetry_Int_Tables_number   1
_chemical_formula_structural   H9C11(NO)2
_chemical_formula_sum   'H18 C22 N4 O4'
_cell_volume   849.46655401
_cell_formula_units_Z   2
loop_
 _symmetry_equiv_pos_site_id
 _symmetry_equiv_pos_as_xyz
  1  'x, y, z'
loop_
 _atom_site_type_symbol
 _atom_site_label
 _atom_site_symmetry_multiplicity
 _atom_site_fract_x
 _atom_site_fract_y
 _atom_site_fract_z
 _atom_site_occupancy
  H  H0  1  0.54170000  0.88980000  0.63300000  1
  H  H1  1  0.72660000  0.08410000  0.79860000  1
  H  H2  1  0.55910000  0.30430000  0.21420000  1
  H  H3  1  0.53840000  0.68830000  0.82940000  1
  H  H4  1  0.67810000  0.72580000  0.18540000  1
  H  H5  1  0.56320000  0.49650000  0.01000000  1
  H  H6  1  0.67480000  0.52120000  0.38480000  1
  H  H7  1  0.72220000  0.88710000  0.00220000  1
  H  H8  1  0.85600000  0.90400000  0.54000000  1
  H  H9  1  0.04170000  0.52280000  0.36700000  1
  H  H10  1  0.22660000  0.88270000  0.20140000  1
  H  H11  1  0.05910000  0.51850000  0.78580000  1
  H  H12  1  0.03840000  0.51770000  0.17060000  1
  H  H13  1  0.17810000  0.91120000  0.81460000  1
  H  H14  1  0.06320000  0.50650000  0.99000000  1
  H  H15  1  0.17480000  0.90600000  0.61520000  1
  H  H16  1  0.22220000  0.88930000  0.99780000  1
  H  H17  1  0.35600000  0.44400000  0.46000000  1
  C  C18  1  0.57980000  0.88950000  0.70920000  1
  C  C19  1  0.68630000  0.00290000  0.80480000  1
  C  C20  1  0.62760000  0.76330000  0.94140000  1
  C  C21  1  0.62100000  0.63570000  0.07220000  1
  C  C22  1  0.58520000  0.39090000  0.20820000  1
  C  C23  1  0.57630000  0.76930000  0.82620000  1
  C  C24  1  0.65420000  0.63990000  0.18820000  1
  C  C25  1  0.58610000  0.50540000  0.08560000  1
  C  C26  1  0.65150000  0.51680000  0.30700000  1
  C  C27  1  0.68440000  0.88500000  0.92720000  1
  C  C28  1  0.86510000  0.96770000  0.45520000  1
  C  C29  1  0.07980000  0.59870000  0.29080000  1
  C  C30  1  0.18630000  0.80770000  0.19520000  1
  C  C31  1  0.12760000  0.70470000  0.05860000  1
  C  C32  1  0.12100000  0.70790000  0.92780000  1
  C  C33  1  0.08520000  0.59910000  0.79180000  1
  C  C34  1  0.07630000  0.59550000  0.17380000  1
  C  C35  1  0.15420000  0.82810000  0.81180000  1
  C  C36  1  0.08610000  0.59100000  0.91440000  1
  C  C37  1  0.15150000  0.82380000  0.69300000  1
  C  C38  1  0.18440000  0.81220000  0.07280000  1
  C  C39  1  0.36510000  0.42290000  0.54480000  1
  N  N40  1  0.63430000  0.00930000  0.69380000  1
  N  N41  1  0.61790000  0.39120000  0.31980000  1
  N  N42  1  0.13430000  0.70310000  0.30620000  1
  N  N43  1  0.11790000  0.71100000  0.68020000  1
  O  O44  1  0.77740000  0.09360000  0.40520000  1
  O  O45  1  0.97890000  0.91883000  0.39714000  1
  O  O46  1  0.27740000  0.49880000  0.59480000  1
  O  O47  1  0.47890000  0.31597000  0.60286000  1
