# generated using pymatgen
data_H8C8N2F3
_symmetry_space_group_name_H-M   'P 1'
_cell_length_a   6.99730000
_cell_length_b   6.99730000
_cell_length_c   7.49180000
_cell_angle_alpha   90.00000000
_cell_angle_beta   90.00000000
_cell_angle_gamma   90.00000000
_symmetry_Int_Tables_number   1
_chemical_formula_structural   H8C8N2F3
_chemical_formula_sum   'H16 C16 N4 F6'
_cell_volume   366.81506458
_cell_formula_units_Z   2
loop_
 _symmetry_equiv_pos_site_id
 _symmetry_equiv_pos_as_xyz
  1  'x, y, z'
loop_
 _atom_site_type_symbol
 _atom_site_label
 _atom_site_symmetry_multiplicity
 _atom_site_fract_x
 _atom_site_fract_y
 _atom_site_fract_z
 _atom_site_occupancy
  H  H0  1  0.81320000  0.42110000  0.76970000  1
  H  H1  1  0.18680000  0.57890000  0.76970000  1
  H  H2  1  0.57890000  0.81320000  0.76970000  1
  H  H3  1  0.42110000  0.18680000  0.76970000  1
  H  H4  1  0.18680000  0.42110000  0.23030000  1
  H  H5  1  0.81320000  0.57890000  0.23030000  1
  H  H6  1  0.42110000  0.81320000  0.23030000  1
  H  H7  1  0.57890000  0.18680000  0.23030000  1
  H  H8  1  0.18680000  0.57890000  0.23030000  1
  H  H9  1  0.81320000  0.42110000  0.23030000  1
  H  H10  1  0.42110000  0.18680000  0.23030000  1
  H  H11  1  0.57890000  0.81320000  0.23030000  1
  H  H12  1  0.81320000  0.57890000  0.76970000  1
  H  H13  1  0.18680000  0.42110000  0.76970000  1
  H  H14  1  0.57890000  0.18680000  0.76970000  1
  H  H15  1  0.42110000  0.81320000  0.76970000  1
  C  C16  1  0.90042000  0.45620000  0.64956000  1
  C  C17  1  0.09958000  0.54380000  0.64956000  1
  C  C18  1  0.54380000  0.90042000  0.64956000  1
  C  C19  1  0.45620000  0.09958000  0.64956000  1
  C  C20  1  0.09958000  0.45620000  0.35044000  1
  C  C21  1  0.90042000  0.54380000  0.35044000  1
  C  C22  1  0.45620000  0.90042000  0.35044000  1
  C  C23  1  0.54380000  0.09958000  0.35044000  1
  C  C24  1  0.09958000  0.54380000  0.35044000  1
  C  C25  1  0.90042000  0.45620000  0.35044000  1
  C  C26  1  0.45620000  0.09958000  0.35044000  1
  C  C27  1  0.54380000  0.90042000  0.35044000  1
  C  C28  1  0.90042000  0.54380000  0.64956000  1
  C  C29  1  0.09958000  0.45620000  0.64956000  1
  C  C30  1  0.54380000  0.09958000  0.64956000  1
  C  C31  1  0.45620000  0.90042000  0.64956000  1
  N  N32  1  0.80510000  0.50000000  0.50000000  1
  N  N33  1  0.19490000  0.50000000  0.50000000  1
  N  N34  1  0.50000000  0.80510000  0.50000000  1
  N  N35  1  0.50000000  0.19490000  0.50000000  1
  F  F36  1  0.50000000  0.50000000  0.76560000  1
  F  F37  1  0.50000000  0.50000000  0.23440000  1
  F  F38  1  0.66520000  0.66520000  0.00000000  1
  F  F39  1  0.33480000  0.33480000  0.00000000  1
  F  F40  1  0.33480000  0.66520000  0.00000000  1
  F  F41  1  0.66520000  0.33480000  0.00000000  1
