# generated using pymatgen
data_CuN4
_symmetry_space_group_name_H-M   'P 1'
_cell_length_a   9.69010000
_cell_length_b   9.69010000
_cell_length_c   6.61930000
_cell_angle_alpha   90.00000000
_cell_angle_beta   90.00000000
_cell_angle_gamma   90.00000000
_symmetry_Int_Tables_number   1
_chemical_formula_structural   CuN4
_chemical_formula_sum   'Cu1 N4'
_cell_volume   621.53928300
_cell_formula_units_Z   1
loop_
 _symmetry_equiv_pos_site_id
 _symmetry_equiv_pos_as_xyz
  1  'x, y, z'
loop_
 _atom_site_type_symbol
 _atom_site_label
 _atom_site_symmetry_multiplicity
 _atom_site_fract_x
 _atom_site_fract_y
 _atom_site_fract_z
 _atom_site_occupancy
  Cu  Cu0  1  0.25000000  0.25000000  0.50000000  1
  N  N1  1  0.10120000  0.39880000  0.50000000  1
  N  N2  1  0.39880000  0.10120000  0.50000000  1
  N  N3  1  0.10120000  0.10120000  0.50000000  1
  N  N4  1  0.39880000  0.39880000  0.50000000  1
