# generated using pymatgen
data_H3C5N2ClO2
_symmetry_space_group_name_H-M   'P 1'
_cell_length_a   7.86510000
_cell_length_b   10.54500000
_cell_length_c   11.20000000
_cell_angle_alpha   90.00000000
_cell_angle_beta   90.00000000
_cell_angle_gamma   90.00000000
_symmetry_Int_Tables_number   1
_chemical_formula_structural   H3C5N2ClO2
_chemical_formula_sum   'H12 C20 N8 Cl4 O8'
_cell_volume   928.89977040
_cell_formula_units_Z   4
loop_
 _symmetry_equiv_pos_site_id
 _symmetry_equiv_pos_as_xyz
  1  'x, y, z'
loop_
 _atom_site_type_symbol
 _atom_site_label
 _atom_site_symmetry_multiplicity
 _atom_site_fract_x
 _atom_site_fract_y
 _atom_site_fract_z
 _atom_site_occupancy
  H  H0  1  0.96390000  0.03770000  0.14440000  1
  H  H1  1  0.99590000  0.42810000  0.98210000  1
  H  H2  1  0.12550000  0.07230000  0.97950000  1
  H  H3  1  0.46390000  0.96230000  0.85560000  1
  H  H4  1  0.49590000  0.57190000  0.01790000  1
  H  H5  1  0.62550000  0.92770000  0.02050000  1
  H  H6  1  0.96390000  0.53770000  0.35560000  1
  H  H7  1  0.99590000  0.92810000  0.51790000  1
  H  H8  1  0.12550000  0.57230000  0.52050000  1
  H  H9  1  0.46390000  0.46230000  0.64440000  1
  H  H10  1  0.49590000  0.07190000  0.48210000  1
  H  H11  1  0.62550000  0.42770000  0.47950000  1
  C  C12  1  0.78860000  0.42890000  0.17300000  1
  C  C13  1  0.96920000  0.11900000  0.11240000  1
  C  C14  1  0.89090000  0.32580000  0.11220000  1
  C  C15  1  0.99150000  0.34700000  0.01460000  1
  C  C16  1  0.06770000  0.14020000  0.01350000  1
  C  C17  1  0.28860000  0.57110000  0.82700000  1
  C  C18  1  0.46920000  0.88100000  0.88760000  1
  C  C19  1  0.39090000  0.67420000  0.88780000  1
  C  C20  1  0.49150000  0.65300000  0.98540000  1
  C  C21  1  0.56770000  0.85980000  0.98650000  1
  C  C22  1  0.78860000  0.92890000  0.32700000  1
  C  C23  1  0.96920000  0.61900000  0.38760000  1
  C  C24  1  0.89090000  0.82580000  0.38780000  1
  C  C25  1  0.99150000  0.84700000  0.48540000  1
  C  C26  1  0.06770000  0.64020000  0.48650000  1
  C  C27  1  0.28860000  0.07110000  0.67300000  1
  C  C28  1  0.46920000  0.38100000  0.61240000  1
  C  C29  1  0.39090000  0.17420000  0.61220000  1
  C  C30  1  0.49150000  0.15300000  0.51460000  1
  C  C31  1  0.56770000  0.35980000  0.51350000  1
  N  N32  1  0.88200000  0.21070000  0.16320000  1
  N  N33  1  0.08370000  0.25460000  0.96440000  1
  N  N34  1  0.38200000  0.78930000  0.83680000  1
  N  N35  1  0.58370000  0.74540000  0.03560000  1
  N  N36  1  0.88200000  0.71070000  0.33680000  1
  N  N37  1  0.08370000  0.75460000  0.53560000  1
  N  N38  1  0.38200000  0.28930000  0.66320000  1
  N  N39  1  0.58370000  0.24540000  0.46440000  1
  Cl  Cl40  1  0.99210000  0.28146000  0.43893000  1
  Cl  Cl41  1  0.49210000  0.71854000  0.56107000  1
  Cl  Cl42  1  0.99210000  0.78146000  0.06107000  1
  Cl  Cl43  1  0.49210000  0.21854000  0.93893000  1
  O  O44  1  0.71420000  0.40040000  0.26740000  1
  O  O45  1  0.79270000  0.53530000  0.12420000  1
  O  O46  1  0.21420000  0.59960000  0.73260000  1
  O  O47  1  0.29270000  0.46470000  0.87580000  1
  O  O48  1  0.71420000  0.90040000  0.23260000  1
  O  O49  1  0.79270000  0.03530000  0.37580000  1
  O  O50  1  0.21420000  0.09960000  0.76740000  1
  O  O51  1  0.29270000  0.96470000  0.62420000  1
