# generated using pymatgen
data_NiN2ClO2
_symmetry_space_group_name_H-M   'P 1'
_cell_length_a   7.86510000
_cell_length_b   10.54500000
_cell_length_c   11.20000000
_cell_angle_alpha   90.00000000
_cell_angle_beta   90.00000000
_cell_angle_gamma   90.00000000
_symmetry_Int_Tables_number   1
_chemical_formula_structural   NiN2ClO2
_chemical_formula_sum   'Ni1 N2 Cl1 O2'
_cell_volume   928.89977040
_cell_formula_units_Z   1
loop_
 _symmetry_equiv_pos_site_id
 _symmetry_equiv_pos_as_xyz
  1  'x, y, z'
loop_
 _atom_site_type_symbol
 _atom_site_label
 _atom_site_symmetry_multiplicity
 _atom_site_fract_x
 _atom_site_fract_y
 _atom_site_fract_z
 _atom_site_occupancy
  Ni  Ni0  1  0.24308000  0.78455000  0.67892000  1
  N  N1  1  0.38200000  0.78930000  0.83680000  1
  N  N2  1  0.08370000  0.75460000  0.53560000  1
  Cl  Cl3  1  0.49210000  0.71854000  0.56107000  1
  O  O4  1  0.21420000  0.59960000  0.73260000  1
  O  O5  1  0.29270000  0.96470000  0.62420000  1
