# generated using pymatgen
data_NiN2ClO2
_symmetry_space_group_name_H-M   'P 1'
_cell_length_a   7.86510000
_cell_length_b   10.54500000
_cell_length_c   11.20000000
_cell_angle_alpha   90.00000000
_cell_angle_beta   90.00000000
_cell_angle_gamma   90.00000000
_symmetry_Int_Tables_number   1
_chemical_formula_structural   NiN2ClO2
_chemical_formula_sum   'Ni1 N2 Cl1 O2'
_cell_volume   928.89977040
_cell_formula_units_Z   1
loop_
 _symmetry_equiv_pos_site_id
 _symmetry_equiv_pos_as_xyz
  1  'x, y, z'
loop_
 _atom_site_type_symbol
 _atom_site_label
 _atom_site_symmetry_multiplicity
 _atom_site_fract_x
 _atom_site_fract_y
 _atom_site_fract_z
 _atom_site_occupancy
  Ni  Ni0  1  0.74308000  0.71545000  0.17892000  1
  N  N1  1  0.58370000  0.74540000  0.03560000  1
  N  N2  1  0.88200000  0.71070000  0.33680000  1
  Cl  Cl3  1  0.99210000  0.78146000  0.06107000  1
  O  O4  1  0.79270000  0.53530000  0.12420000  1
  O  O5  1  0.71420000  0.90040000  0.23260000  1
