# generated using pymatgen
data_ZnNO4
_symmetry_space_group_name_H-M   'P 1'
_cell_length_a   7.06490000
_cell_length_b   7.06490000
_cell_length_c   19.77500000
_cell_angle_alpha   90.00000000
_cell_angle_beta   90.00000000
_cell_angle_gamma   90.00000000
_symmetry_Int_Tables_number   1
_chemical_formula_structural   ZnNO4
_chemical_formula_sum   'Zn1 N1 O4'
_cell_volume   987.02585750
_cell_formula_units_Z   1
loop_
 _symmetry_equiv_pos_site_id
 _symmetry_equiv_pos_as_xyz
  1  'x, y, z'
loop_
 _atom_site_type_symbol
 _atom_site_label
 _atom_site_symmetry_multiplicity
 _atom_site_fract_x
 _atom_site_fract_y
 _atom_site_fract_z
 _atom_site_occupancy
  Zn  Zn0  1  0.50000000  0.50000000  0.77846000  1
  N  N1  1  0.50000000  0.50000000  0.67640000  1
  O  O2  1  0.65280000  0.65280000  0.83940000  1
  O  O3  1  0.34720000  0.34720000  0.83940000  1
  O  O4  1  0.71510000  0.28490000  0.75070000  1
  O  O5  1  0.28490000  0.71510000  0.75070000  1
