# generated using pymatgen
data_H2C7NO4
_symmetry_space_group_name_H-M   'P 1'
_cell_length_a   7.06490000
_cell_length_b   7.06490000
_cell_length_c   19.77500000
_cell_angle_alpha   90.00000000
_cell_angle_beta   90.00000000
_cell_angle_gamma   90.00000000
_symmetry_Int_Tables_number   1
_chemical_formula_structural   H2C7NO4
_chemical_formula_sum   'H8 C28 N4 O16'
_cell_volume   987.02585750
_cell_formula_units_Z   4
loop_
 _symmetry_equiv_pos_site_id
 _symmetry_equiv_pos_as_xyz
  1  'x, y, z'
loop_
 _atom_site_type_symbol
 _atom_site_label
 _atom_site_symmetry_multiplicity
 _atom_site_fract_x
 _atom_site_fract_y
 _atom_site_fract_z
 _atom_site_occupancy
  H  H0  1  0.79980000  0.79980000  0.94900000  1
  H  H1  1  0.20020000  0.20020000  0.94900000  1
  H  H2  1  0.70020000  0.29980000  0.44900000  1
  H  H3  1  0.29980000  0.70020000  0.44900000  1
  H  H4  1  0.70020000  0.29980000  0.55100000  1
  H  H5  1  0.29980000  0.70020000  0.55100000  1
  H  H6  1  0.79980000  0.79980000  0.05100000  1
  H  H7  1  0.20020000  0.20020000  0.05100000  1
  C  C8  1  0.00000000  0.00000000  0.96240000  1
  C  C9  1  0.50000000  0.50000000  0.46240000  1
  C  C10  1  0.50000000  0.50000000  0.53760000  1
  C  C11  1  0.00000000  0.00000000  0.03760000  1
  C  C12  1  0.88160000  0.88160000  0.92650000  1
  C  C13  1  0.88670000  0.88670000  0.85600000  1
  C  C14  1  0.76410000  0.76410000  0.81110000  1
  C  C15  1  0.11840000  0.11840000  0.92650000  1
  C  C16  1  0.11330000  0.11330000  0.85600000  1
  C  C17  1  0.23590000  0.23590000  0.81110000  1
  C  C18  1  0.61840000  0.38160000  0.42650000  1
  C  C19  1  0.61330000  0.38670000  0.35600000  1
  C  C20  1  0.73590000  0.26410000  0.31110000  1
  C  C21  1  0.38160000  0.61840000  0.42650000  1
  C  C22  1  0.38670000  0.61330000  0.35600000  1
  C  C23  1  0.26410000  0.73590000  0.31110000  1
  C  C24  1  0.61840000  0.38160000  0.57350000  1
  C  C25  1  0.61330000  0.38670000  0.64400000  1
  C  C26  1  0.73590000  0.26410000  0.68890000  1
  C  C27  1  0.38160000  0.61840000  0.57350000  1
  C  C28  1  0.38670000  0.61330000  0.64400000  1
  C  C29  1  0.26410000  0.73590000  0.68890000  1
  C  C30  1  0.88160000  0.88160000  0.07350000  1
  C  C31  1  0.88670000  0.88670000  0.14400000  1
  C  C32  1  0.76410000  0.76410000  0.18890000  1
  C  C33  1  0.11840000  0.11840000  0.07350000  1
  C  C34  1  0.11330000  0.11330000  0.14400000  1
  C  C35  1  0.23590000  0.23590000  0.18890000  1
  N  N36  1  0.00000000  0.00000000  0.82360000  1
  N  N37  1  0.50000000  0.50000000  0.32360000  1
  N  N38  1  0.50000000  0.50000000  0.67640000  1
  N  N39  1  0.00000000  0.00000000  0.17640000  1
  O  O40  1  0.65280000  0.65280000  0.83940000  1
  O  O41  1  0.78490000  0.78490000  0.74930000  1
  O  O42  1  0.34720000  0.34720000  0.83940000  1
  O  O43  1  0.21510000  0.21510000  0.74930000  1
  O  O44  1  0.84720000  0.15280000  0.33940000  1
  O  O45  1  0.71510000  0.28490000  0.24930000  1
  O  O46  1  0.15280000  0.84720000  0.33940000  1
  O  O47  1  0.28490000  0.71510000  0.24930000  1
  O  O48  1  0.84720000  0.15280000  0.66060000  1
  O  O49  1  0.71510000  0.28490000  0.75070000  1
  O  O50  1  0.15280000  0.84720000  0.66060000  1
  O  O51  1  0.28490000  0.71510000  0.75070000  1
  O  O52  1  0.65280000  0.65280000  0.16060000  1
  O  O53  1  0.78490000  0.78490000  0.25070000  1
  O  O54  1  0.34720000  0.34720000  0.16060000  1
  O  O55  1  0.21510000  0.21510000  0.25070000  1
