# generated using pymatgen
data_InO6
_symmetry_space_group_name_H-M   'P 1'
_cell_length_a   5.65300000
_cell_length_b   6.62700000
_cell_length_c   9.39100000
_cell_angle_alpha   70.78800000
_cell_angle_beta   75.83600000
_cell_angle_gamma   89.68000000
_symmetry_Int_Tables_number   1
_chemical_formula_structural   InO6
_chemical_formula_sum   'In1 O6'
_cell_volume   321.03624433
_cell_formula_units_Z   1
loop_
 _symmetry_equiv_pos_site_id
 _symmetry_equiv_pos_as_xyz
  1  'x, y, z'
loop_
 _atom_site_type_symbol
 _atom_site_label
 _atom_site_symmetry_multiplicity
 _atom_site_fract_x
 _atom_site_fract_y
 _atom_site_fract_z
 _atom_site_occupancy
  In  In0  1  0.28640000  0.33170000  0.83940000  1
  O  O1  1  0.27700000  0.65400000  0.82460000  1
  O  O2  1  0.44780000  0.24020000  1.03050000  1
  O  O3  1  -0.09300000  0.25500000  0.93130000  1
  O  O4  1  0.18910000  0.44190000  0.60450000  1
  O  O5  1  0.63990000  0.42600000  0.65500000  1
  O  O6  1  0.31600000  0.02510000  0.81010000  1
