# generated using pymatgen
data_In
_symmetry_space_group_name_H-M   'P 1'
_cell_length_a   5.65300000
_cell_length_b   6.62700000
_cell_length_c   9.39100000
_cell_angle_alpha   70.78800000
_cell_angle_beta   75.83600000
_cell_angle_gamma   89.68000000
_symmetry_Int_Tables_number   1
_chemical_formula_structural   In
_chemical_formula_sum   In2
_cell_volume   321.03624433
_cell_formula_units_Z   2
loop_
 _symmetry_equiv_pos_site_id
 _symmetry_equiv_pos_as_xyz
  1  'x, y, z'
loop_
 _atom_site_type_symbol
 _atom_site_label
 _atom_site_symmetry_multiplicity
 _atom_site_fract_x
 _atom_site_fract_y
 _atom_site_fract_z
 _atom_site_occupancy
  In  In0  1  0.28640000  0.33170000  0.83940000  1
  In  In1  1  0.71360000  0.66830000  0.16060000  1
