# generated using pymatgen
data_PCO6
_symmetry_space_group_name_H-M   'P 1'
_cell_length_a   5.65300000
_cell_length_b   6.62700000
_cell_length_c   9.39100000
_cell_angle_alpha   70.78800000
_cell_angle_beta   75.83600000
_cell_angle_gamma   89.68000000
_symmetry_Int_Tables_number   1
_chemical_formula_structural   PCO6
_chemical_formula_sum   'P2 C2 O12'
_cell_volume   321.03624433
_cell_formula_units_Z   2
loop_
 _symmetry_equiv_pos_site_id
 _symmetry_equiv_pos_as_xyz
  1  'x, y, z'
loop_
 _atom_site_type_symbol
 _atom_site_label
 _atom_site_symmetry_multiplicity
 _atom_site_fract_x
 _atom_site_fract_y
 _atom_site_fract_z
 _atom_site_occupancy
  P  P0  1  0.30600000  0.79020000  0.92400000  1
  P  P1  1  0.69400000  0.20980000  0.07600000  1
  C  C2  1  0.37200000  0.50600000  0.48740000  1
  C  C3  1  0.62800000  0.49400000  0.51260000  1
  O  O4  1  0.27700000  0.65400000  0.82460000  1
  O  O5  1  0.44780000  0.24020000  0.03050000  1
  O  O6  1  0.90700000  0.25500000  0.93130000  1
  O  O7  1  0.68400000  0.97490000  0.18990000  1
  O  O8  1  0.18910000  0.44190000  0.60450000  1
  O  O9  1  0.63990000  0.42600000  0.65500000  1
  O  O10  1  0.72300000  0.34600000  0.17540000  1
  O  O11  1  0.55220000  0.75980000  0.96950000  1
  O  O12  1  0.09300000  0.74500000  0.06870000  1
  O  O13  1  0.31600000  0.02510000  0.81010000  1
  O  O14  1  0.81090000  0.55810000  0.39550000  1
  O  O15  1  0.36010000  0.57400000  0.34500000  1
