# generated using pymatgen
data_CO2
_symmetry_space_group_name_H-M   'P 1'
_cell_length_a   8.28110000
_cell_length_b   9.88340000
_cell_length_c   10.18180000
_cell_angle_alpha   99.05300000
_cell_angle_beta   90.00000000
_cell_angle_gamma   90.00000000
_symmetry_Int_Tables_number   1
_chemical_formula_structural   CO2
_chemical_formula_sum   'C12 O24'
_cell_volume   822.95307404
_cell_formula_units_Z   12
loop_
 _symmetry_equiv_pos_site_id
 _symmetry_equiv_pos_as_xyz
  1  'x, y, z'
loop_
 _atom_site_type_symbol
 _atom_site_label
 _atom_site_symmetry_multiplicity
 _atom_site_fract_x
 _atom_site_fract_y
 _atom_site_fract_z
 _atom_site_occupancy
  C  C0  1  0.59500000  0.02220000  0.67090000  1
  C  C1  1  0.60320000  0.91710000  0.76810000  1
  C  C2  1  0.98350000  0.49460000  0.57390000  1
  C  C3  1  0.09500000  0.97780000  0.82910000  1
  C  C4  1  0.10320000  0.08290000  0.73190000  1
  C  C5  1  0.48350000  0.50540000  0.92610000  1
  C  C6  1  0.40500000  0.97780000  0.32910000  1
  C  C7  1  0.39680000  0.08290000  0.23190000  1
  C  C8  1  0.01650000  0.50540000  0.42610000  1
  C  C9  1  0.90500000  0.02220000  0.17090000  1
  C  C10  1  0.89680000  0.91710000  0.26810000  1
  C  C11  1  0.51650000  0.49460000  0.07390000  1
  O  O12  1  0.68330000  0.99580000  0.56980000  1
  O  O13  1  0.50550000  0.12290000  0.70090000  1
  O  O14  1  0.69080000  0.81620000  0.73900000  1
  O  O15  1  0.51980000  0.94360000  0.87386000  1
  O  O16  1  0.93350000  0.59890000  0.64710000  1
  O  O17  1  0.00900000  0.38010000  0.60760000  1
  O  O18  1  0.18330000  0.00420000  0.93020000  1
  O  O19  1  0.00550000  0.87710000  0.79910000  1
  O  O20  1  0.19080000  0.18380000  0.76100000  1
  O  O21  1  0.01980000  0.05640000  0.62614000  1
  O  O22  1  0.43350000  0.40110000  0.85290000  1
  O  O23  1  0.50900000  0.61990000  0.89240000  1
  O  O24  1  0.31670000  0.00420000  0.43020000  1
  O  O25  1  0.49450000  0.87710000  0.29910000  1
  O  O26  1  0.30920000  0.18380000  0.26100000  1
  O  O27  1  0.48020000  0.05640000  0.12614000  1
  O  O28  1  0.06650000  0.40110000  0.35290000  1
  O  O29  1  0.99100000  0.61990000  0.39240000  1
  O  O30  1  0.81670000  0.99580000  0.06980000  1
  O  O31  1  0.99450000  0.12290000  0.20090000  1
  O  O32  1  0.80920000  0.81620000  0.23900000  1
  O  O33  1  0.98020000  0.94360000  0.37386000  1
  O  O34  1  0.56650000  0.59890000  0.14710000  1
  O  O35  1  0.49100000  0.38010000  0.10760000  1
