# generated using pymatgen
data_Pr
_symmetry_space_group_name_H-M   'P 1'
_cell_length_a   8.28110000
_cell_length_b   9.88340000
_cell_length_c   10.18180000
_cell_angle_alpha   99.05300000
_cell_angle_beta   90.00000000
_cell_angle_gamma   90.00000000
_symmetry_Int_Tables_number   1
_chemical_formula_structural   Pr
_chemical_formula_sum   Pr4
_cell_volume   822.95307404
_cell_formula_units_Z   4
loop_
 _symmetry_equiv_pos_site_id
 _symmetry_equiv_pos_as_xyz
  1  'x, y, z'
loop_
 _atom_site_type_symbol
 _atom_site_label
 _atom_site_symmetry_multiplicity
 _atom_site_fract_x
 _atom_site_fract_y
 _atom_site_fract_z
 _atom_site_occupancy
  Pr  Pr0  1  0.90161000  0.81500000  0.56293000  1
  Pr  Pr1  1  0.40161000  0.18500000  0.93707000  1
  Pr  Pr2  1  0.09839000  0.18500000  0.43707000  1
  Pr  Pr3  1  0.59839000  0.81500000  0.06293000  1
