# generated using pymatgen
data_PrO7
_symmetry_space_group_name_H-M   'P 1'
_cell_length_a   8.28110000
_cell_length_b   9.88340000
_cell_length_c   10.18180000
_cell_angle_alpha   99.05300000
_cell_angle_beta   90.00000000
_cell_angle_gamma   90.00000000
_symmetry_Int_Tables_number   1
_chemical_formula_structural   PrO7
_chemical_formula_sum   'Pr1 O7'
_cell_volume   822.95307404
_cell_formula_units_Z   1
loop_
 _symmetry_equiv_pos_site_id
 _symmetry_equiv_pos_as_xyz
  1  'x, y, z'
loop_
 _atom_site_type_symbol
 _atom_site_label
 _atom_site_symmetry_multiplicity
 _atom_site_fract_x
 _atom_site_fract_y
 _atom_site_fract_z
 _atom_site_occupancy
  Pr  Pr0  1  0.90161000  0.81500000  0.56293000  1
  O  O1  1  0.68330000  0.99580000  0.56980000  1
  O  O2  1  0.69080000  0.81620000  0.73900000  1
  O  O3  1  0.93350000  0.59890000  0.64710000  1
  O  O4  1  1.00550000  0.87710000  0.79910000  1
  O  O5  1  1.01980000  1.05640000  0.62614000  1
  O  O6  1  0.99100000  0.61990000  0.39240000  1
  O  O7  1  0.98020000  0.94360000  0.37386000  1
