# generated using pymatgen
data_PrO7
_symmetry_space_group_name_H-M   'P 1'
_cell_length_a   8.28110000
_cell_length_b   9.88340000
_cell_length_c   10.18180000
_cell_angle_alpha   99.05300000
_cell_angle_beta   90.00000000
_cell_angle_gamma   90.00000000
_symmetry_Int_Tables_number   1
_chemical_formula_structural   PrO7
_chemical_formula_sum   'Pr1 O7'
_cell_volume   822.95307404
_cell_formula_units_Z   1
loop_
 _symmetry_equiv_pos_site_id
 _symmetry_equiv_pos_as_xyz
  1  'x, y, z'
loop_
 _atom_site_type_symbol
 _atom_site_label
 _atom_site_symmetry_multiplicity
 _atom_site_fract_x
 _atom_site_fract_y
 _atom_site_fract_z
 _atom_site_occupancy
  Pr  Pr0  1  0.09839000  0.18500000  0.43707000  1
  O  O1  1  0.00900000  0.38010000  0.60760000  1
  O  O2  1  0.01980000  0.05640000  0.62614000  1
  O  O3  1  0.31670000  0.00420000  0.43020000  1
  O  O4  1  0.30920000  0.18380000  0.26100000  1
  O  O5  1  0.06650000  0.40110000  0.35290000  1
  O  O6  1  -0.00550000  0.12290000  0.20090000  1
  O  O7  1  -0.01980000  -0.05640000  0.37386000  1
