# generated using pymatgen
data_AgN4
_symmetry_space_group_name_H-M   'P 1'
_cell_length_a   3.72890000
_cell_length_b   15.93240000
_cell_length_c   15.93240000
_cell_angle_alpha   89.21540000
_cell_angle_beta   83.28010000
_cell_angle_gamma   83.27970000
_symmetry_Int_Tables_number   1
_chemical_formula_structural   AgN4
_chemical_formula_sum   'Ag1 N4'
_cell_volume   933.58753240
_cell_formula_units_Z   1
loop_
 _symmetry_equiv_pos_site_id
 _symmetry_equiv_pos_as_xyz
  1  'x, y, z'
loop_
 _atom_site_type_symbol
 _atom_site_label
 _atom_site_symmetry_multiplicity
 _atom_site_fract_x
 _atom_site_fract_y
 _atom_site_fract_z
 _atom_site_occupancy
  Ag  Ag0  1  0.12500000  0.25000000  0.75000000  1
  N  N1  1  -0.06004000  0.12143000  0.72165000  1
  N  N2  1  -0.21696000  0.37857000  0.77835000  1
  N  N3  1  0.33839000  0.22165000  0.87857000  1
  N  N4  1  0.43861000  0.27835000  0.62143000  1
