# generated using pymatgen
data_HC4N2Cl
_symmetry_space_group_name_H-M   'P 1'
_cell_length_a   3.72890000
_cell_length_b   15.93240000
_cell_length_c   15.93240000
_cell_angle_alpha   89.21540000
_cell_angle_beta   83.28010000
_cell_angle_gamma   83.27970000
_symmetry_Int_Tables_number   1
_chemical_formula_structural   HC4N2Cl
_chemical_formula_sum   'H8 C32 N16 Cl8'
_cell_volume   933.58753240
_cell_formula_units_Z   8
loop_
 _symmetry_equiv_pos_site_id
 _symmetry_equiv_pos_as_xyz
  1  'x, y, z'
loop_
 _atom_site_type_symbol
 _atom_site_label
 _atom_site_symmetry_multiplicity
 _atom_site_fract_x
 _atom_site_fract_y
 _atom_site_fract_z
 _atom_site_occupancy
  H  H0  1  0.56860000  0.12810000  0.56090000  1
  H  H1  1  0.25760000  0.37190000  0.93910000  1
  H  H2  1  0.12950000  0.93910000  0.12810000  1
  H  H3  1  0.19670000  0.56090000  0.37190000  1
  H  H4  1  0.43140000  0.87190000  0.43910000  1
  H  H5  1  0.74240000  0.62810000  0.06090000  1
  H  H6  1  0.87050000  0.06090000  0.87190000  1
  H  H7  1  0.80330000  0.43910000  0.62810000  1
  C  C8  1  0.87884000  0.06533000  0.68399000  1
  C  C9  1  0.66302000  0.99965000  0.57611000  1
  C  C10  1  0.54385000  0.07733000  0.53577000  1
  C  C11  1  0.60913000  0.92152000  0.53622000  1
  C  C12  1  0.62816000  0.43467000  0.81601000  1
  C  C13  1  0.23878000  0.50035000  0.92389000  1
  C  C14  1  0.15695000  0.42267000  0.96423000  1
  C  C15  1  0.06687000  0.57848000  0.96378000  1
  C  C16  1  0.56283000  0.81601000  0.06533000  1
  C  C17  1  0.23913000  0.92389000  0.99965000  1
  C  C18  1  0.07962000  0.96423000  0.07733000  1
  C  C19  1  0.14535000  0.96378000  0.92152000  1
  C  C20  1  0.44417000  0.68399000  0.43467000  1
  C  C21  1  0.16267000  0.57611000  0.50035000  1
  C  C22  1  0.12118000  0.53577000  0.42267000  1
  C  C23  1  0.03065000  0.53622000  0.57848000  1
  C  C24  1  0.12116000  0.93467000  0.31601000  1
  C  C25  1  0.33698000  0.00035000  0.42389000  1
  C  C26  1  0.45615000  0.92267000  0.46423000  1
  C  C27  1  0.39087000  0.07848000  0.46378000  1
  C  C28  1  0.37184000  0.56533000  0.18399000  1
  C  C29  1  0.76122000  0.49965000  0.07611000  1
  C  C30  1  0.84305000  0.57733000  0.03577000  1
  C  C31  1  0.93313000  0.42152000  0.03622000  1
  C  C32  1  0.43717000  0.18399000  0.93467000  1
  C  C33  1  0.76087000  0.07611000  0.00035000  1
  C  C34  1  0.92038000  0.03577000  0.92267000  1
  C  C35  1  0.85465000  0.03622000  0.07848000  1
  C  C36  1  0.55583000  0.31601000  0.56533000  1
  C  C37  1  0.83733000  0.42389000  0.49965000  1
  C  C38  1  0.87882000  0.46423000  0.57733000  1
  C  C39  1  0.96935000  0.46378000  0.42152000  1
  N  N40  1  0.93996000  0.12143000  0.72165000  1
  N  N41  1  0.82573000  0.99481000  0.64613000  1
  N  N42  1  0.78304000  0.37857000  0.77835000  1
  N  N43  1  0.46667000  0.50519000  0.85387000  1
  N  N44  1  0.66161000  0.77835000  0.12143000  1
  N  N45  1  0.47186000  0.85387000  0.99481000  1
  N  N46  1  0.56139000  0.72165000  0.37857000  1
  N  N47  1  0.32054000  0.64613000  0.50519000  1
  N  N48  1  0.06004000  0.87857000  0.27835000  1
  N  N49  1  0.17427000  0.00519000  0.35387000  1
  N  N50  1  0.21696000  0.62143000  0.22165000  1
  N  N51  1  0.53333000  0.49481000  0.14613000  1
  N  N52  1  0.33839000  0.22165000  0.87857000  1
  N  N53  1  0.52814000  0.14613000  0.00519000  1
  N  N54  1  0.43861000  0.27835000  0.62143000  1
  N  N55  1  0.67946000  0.35387000  0.49481000  1
  Cl  Cl56  1  0.74469000  0.82747000  0.58355000  1
  Cl  Cl57  1  0.15571000  0.67253000  0.91645000  1
  Cl  Cl58  1  0.32824000  0.91645000  0.82747000  1
  Cl  Cl59  1  0.07216000  0.58355000  0.67253000  1
  Cl  Cl60  1  0.25531000  0.17253000  0.41645000  1
  Cl  Cl61  1  0.84429000  0.32747000  0.08355000  1
  Cl  Cl62  1  0.67176000  0.08355000  0.17253000  1
  Cl  Cl63  1  0.92784000  0.41645000  0.32747000  1
