# generated using pymatgen
data_EuO8
_symmetry_space_group_name_H-M   'P 1'
_cell_length_a   8.71400000
_cell_length_b   10.27500000
_cell_length_c   9.32500000
_cell_angle_alpha   85.16000000
_cell_angle_beta   63.81000000
_cell_angle_gamma   72.37000000
_symmetry_Int_Tables_number   1
_chemical_formula_structural   EuO8
_chemical_formula_sum   'Eu1 O8'
_cell_volume   712.83307739
_cell_formula_units_Z   1
loop_
 _symmetry_equiv_pos_site_id
 _symmetry_equiv_pos_as_xyz
  1  'x, y, z'
loop_
 _atom_site_type_symbol
 _atom_site_label
 _atom_site_symmetry_multiplicity
 _atom_site_fract_x
 _atom_site_fract_y
 _atom_site_fract_z
 _atom_site_occupancy
  Eu  Eu0  1  0.75630000  0.98090000  0.00000000  1
  O  O1  1  0.41700000  0.95400000  0.14730000  1
  O  O2  1  0.59000000  0.90000000  0.27000000  1
  O  O3  1  1.11780000  0.95760000  -0.15470000  1
  O  O4  1  0.98320000  0.90160000  -0.28010000  1
  O  O5  1  0.94770000  0.75600000  0.02700000  1
  O  O6  1  0.75010000  0.74670000  -0.05560000  1
  O  O7  1  0.58300000  1.04600000  -0.14730000  1
  O  O8  1  0.88220000  1.04240000  0.15470000  1
