# generated using pymatgen
data_H(CO)2
_symmetry_space_group_name_H-M   'P 1'
_cell_length_a   8.71400000
_cell_length_b   10.27500000
_cell_length_c   9.32500000
_cell_angle_alpha   85.16000000
_cell_angle_beta   63.81000000
_cell_angle_gamma   72.37000000
_symmetry_Int_Tables_number   1
_chemical_formula_structural   H(CO)2
_chemical_formula_sum   'H6 C12 O12'
_cell_volume   712.83307739
_cell_formula_units_Z   6
loop_
 _symmetry_equiv_pos_site_id
 _symmetry_equiv_pos_as_xyz
  1  'x, y, z'
loop_
 _atom_site_type_symbol
 _atom_site_label
 _atom_site_symmetry_multiplicity
 _atom_site_fract_x
 _atom_site_fract_y
 _atom_site_fract_z
 _atom_site_occupancy
  H  H0  1  0.15728000  0.90146000  0.41775000  1
  H  H1  1  0.40865000  0.91407000  0.57256000  1
  H  H2  1  0.87863000  0.47266000  0.93059000  1
  H  H3  1  0.84272000  0.09854000  0.58225000  1
  H  H4  1  0.59135000  0.08593000  0.42744000  1
  H  H5  1  0.12449000  0.52379000  0.07011000  1
  C  C6  1  0.43870000  0.92020000  0.27210000  1
  C  C7  1  0.28160000  0.91180000  0.42250000  1
  C  C8  1  0.28120000  0.91600000  0.56450000  1
  C  C9  1  0.11810000  0.92330000  0.71790000  1
  C  C10  1  0.87580000  0.68830000  0.98410000  1
  C  C11  1  0.93850000  0.53390000  0.97700000  1
  C  C12  1  0.56130000  0.07980000  0.72790000  1
  C  C13  1  0.71840000  0.08820000  0.57750000  1
  C  C14  1  0.71880000  0.08400000  0.43550000  1
  C  C15  1  0.88190000  0.07670000  0.28210000  1
  C  C16  1  0.12420000  0.31170000  0.01590000  1
  C  C17  1  0.06150000  0.46610000  0.02300000  1
  O  O18  1  0.41700000  0.95400000  0.14730000  1
  O  O19  1  0.59000000  0.90000000  0.27000000  1
  O  O20  1  0.11780000  0.95760000  0.84530000  1
  O  O21  1  0.98320000  0.90160000  0.71990000  1
  O  O22  1  0.94770000  0.75600000  0.02700000  1
  O  O23  1  0.75010000  0.74670000  0.94440000  1
  O  O24  1  0.58300000  0.04600000  0.85270000  1
  O  O25  1  0.41000000  0.10000000  0.73000000  1
  O  O26  1  0.88220000  0.04240000  0.15470000  1
  O  O27  1  0.01680000  0.09840000  0.28010000  1
  O  O28  1  0.05230000  0.24400000  0.97300000  1
  O  O29  1  0.24990000  0.25330000  0.05560000  1
