# generated using pymatgen
data_ErO7
_symmetry_space_group_name_H-M   'P 1'
_cell_length_a   6.17300000
_cell_length_b   9.04500000
_cell_length_c   14.65400000
_cell_angle_alpha   90.00000000
_cell_angle_beta   93.92000000
_cell_angle_gamma   90.00000000
_symmetry_Int_Tables_number   1
_chemical_formula_structural   ErO7
_chemical_formula_sum   'Er1 O7'
_cell_volume   816.28873417
_cell_formula_units_Z   1
loop_
 _symmetry_equiv_pos_site_id
 _symmetry_equiv_pos_as_xyz
  1  'x, y, z'
loop_
 _atom_site_type_symbol
 _atom_site_label
 _atom_site_symmetry_multiplicity
 _atom_site_fract_x
 _atom_site_fract_y
 _atom_site_fract_z
 _atom_site_occupancy
  Er  Er0  1  0.92340000  0.92000000  0.88560000  1
  O  O1  1  0.95520000  0.87750000  1.03640000  1
  O  O2  1  1.03250000  1.10700000  0.78490000  1
  O  O3  1  1.04480000  1.12250000  0.96360000  1
  O  O4  1  0.60740000  0.77330000  0.89820000  1
  O  O5  1  1.29400000  0.88500000  0.87530000  1
  O  O6  1  1.05450000  0.66120000  0.89360000  1
  O  O7  1  0.86040000  0.84060000  0.73440000  1
