# generated using pymatgen
data_C2O3
_symmetry_space_group_name_H-M   'P 1'
_cell_length_a   6.17300000
_cell_length_b   9.04500000
_cell_length_c   14.65400000
_cell_angle_alpha   90.00000000
_cell_angle_beta   93.92000000
_cell_angle_gamma   90.00000000
_symmetry_Int_Tables_number   1
_chemical_formula_structural   C2O3
_chemical_formula_sum   'C16 O24'
_cell_volume   816.28873417
_cell_formula_units_Z   8
loop_
 _symmetry_equiv_pos_site_id
 _symmetry_equiv_pos_as_xyz
  1  'x, y, z'
loop_
 _atom_site_type_symbol
 _atom_site_label
 _atom_site_symmetry_multiplicity
 _atom_site_fract_x
 _atom_site_fract_y
 _atom_site_fract_z
 _atom_site_occupancy
  C  C0  1  0.90350000  0.76890000  0.18590000  1
  C  C1  1  0.88530000  0.75210000  0.08150000  1
  C  C2  1  0.59280000  0.21920000  0.10570000  1
  C  C3  1  0.71560000  0.35540000  0.08420000  1
  C  C4  1  0.09650000  0.26890000  0.31410000  1
  C  C5  1  0.11470000  0.25210000  0.41850000  1
  C  C6  1  0.40720000  0.71920000  0.39430000  1
  C  C7  1  0.28440000  0.85540000  0.41580000  1
  C  C8  1  0.09650000  0.23110000  0.81410000  1
  C  C9  1  0.11470000  0.24790000  0.91850000  1
  C  C10  1  0.40720000  0.78080000  0.89430000  1
  C  C11  1  0.28440000  0.64460000  0.91580000  1
  C  C12  1  0.90350000  0.73110000  0.68590000  1
  C  C13  1  0.88530000  0.74790000  0.58150000  1
  C  C14  1  0.59280000  0.28080000  0.60570000  1
  C  C15  1  0.71560000  0.14460000  0.58420000  1
  O  O16  1  0.86040000  0.65940000  0.23440000  1
  O  O17  1  0.96750000  0.89300000  0.21510000  1
  O  O18  1  0.95520000  0.87750000  0.03640000  1
  O  O19  1  0.39260000  0.22670000  0.10180000  1
  O  O20  1  0.70600000  0.11500000  0.12470000  1
  O  O21  1  0.94550000  0.33880000  0.10640000  1
  O  O22  1  0.13960000  0.15940000  0.26560000  1
  O  O23  1  0.03250000  0.39300000  0.28490000  1
  O  O24  1  0.04480000  0.37750000  0.46360000  1
  O  O25  1  0.60740000  0.72670000  0.39820000  1
  O  O26  1  0.29400000  0.61500000  0.37530000  1
  O  O27  1  0.05450000  0.83880000  0.39360000  1
  O  O28  1  0.13960000  0.34060000  0.76560000  1
  O  O29  1  0.03250000  0.10700000  0.78490000  1
  O  O30  1  0.04480000  0.12250000  0.96360000  1
  O  O31  1  0.60740000  0.77330000  0.89820000  1
  O  O32  1  0.29400000  0.88500000  0.87530000  1
  O  O33  1  0.05450000  0.66120000  0.89360000  1
  O  O34  1  0.86040000  0.84060000  0.73440000  1
  O  O35  1  0.96750000  0.60700000  0.71510000  1
  O  O36  1  0.95520000  0.62250000  0.53640000  1
  O  O37  1  0.39260000  0.27330000  0.60180000  1
  O  O38  1  0.70600000  0.38500000  0.62470000  1
  O  O39  1  0.94550000  0.16120000  0.60640000  1
