# generated using pymatgen
data_MgO5
_symmetry_space_group_name_H-M   'P 1'
_cell_length_a   6.84830000
_cell_length_b   21.05610000
_cell_length_c   21.05610000
_cell_angle_alpha   61.15970000
_cell_angle_beta   83.77620000
_cell_angle_gamma   96.22380000
_symmetry_Int_Tables_number   1
_chemical_formula_structural   MgO5
_chemical_formula_sum   'Mg1 O5'
_cell_volume   2598.57198324
_cell_formula_units_Z   1
loop_
 _symmetry_equiv_pos_site_id
 _symmetry_equiv_pos_as_xyz
  1  'x, y, z'
loop_
 _atom_site_type_symbol
 _atom_site_label
 _atom_site_symmetry_multiplicity
 _atom_site_fract_x
 _atom_site_fract_y
 _atom_site_fract_z
 _atom_site_occupancy
  Mg  Mg0  1  0.17828000  0.69636000  0.61869000  1
  O  O1  1  0.00576000  0.76905000  0.58929000  1
  O  O2  1  0.36743000  0.75296000  0.64787000  1
  O  O3  1  0.36917000  0.65283000  0.65312000  1
  O  O4  1  0.01530000  0.64787000  0.59917000  1
  O  O5  1  0.02229000  0.65312000  0.69405000  1
