# generated using pymatgen
data_Mg
_symmetry_space_group_name_H-M   'P 1'
_cell_length_a   6.84830000
_cell_length_b   21.05610000
_cell_length_c   21.05610000
_cell_angle_alpha   61.15970000
_cell_angle_beta   83.77620000
_cell_angle_gamma   96.22380000
_symmetry_Int_Tables_number   1
_chemical_formula_structural   Mg
_chemical_formula_sum   Mg6
_cell_volume   2598.57198324
_cell_formula_units_Z   6
loop_
 _symmetry_equiv_pos_site_id
 _symmetry_equiv_pos_as_xyz
  1  'x, y, z'
loop_
 _atom_site_type_symbol
 _atom_site_label
 _atom_site_symmetry_multiplicity
 _atom_site_fract_x
 _atom_site_fract_y
 _atom_site_fract_z
 _atom_site_occupancy
  Mg  Mg0  1  0.17828000  0.69636000  0.61869000  1
  Mg  Mg1  1  0.79697000  0.61869000  0.68495000  1
  Mg  Mg2  1  0.48192000  0.68495000  0.69636000  1
  Mg  Mg3  1  0.82172000  0.30364000  0.38131000  1
  Mg  Mg4  1  0.20303000  0.38131000  0.31505000  1
  Mg  Mg5  1  0.51808000  0.31505000  0.30364000  1
