# generated using pymatgen
data_CN
_symmetry_space_group_name_H-M   'P 1'
_cell_length_a   13.50400000
_cell_length_b   7.44470000
_cell_length_c   8.20590000
_cell_angle_alpha   90.00000000
_cell_angle_beta   90.00000000
_cell_angle_gamma   90.00000000
_symmetry_Int_Tables_number   1
_chemical_formula_structural   CN
_chemical_formula_sum   'C12 N12'
_cell_volume   824.96562221
_cell_formula_units_Z   12
loop_
 _symmetry_equiv_pos_site_id
 _symmetry_equiv_pos_as_xyz
  1  'x, y, z'
loop_
 _atom_site_type_symbol
 _atom_site_label
 _atom_site_symmetry_multiplicity
 _atom_site_fract_x
 _atom_site_fract_y
 _atom_site_fract_z
 _atom_site_occupancy
  C  C0  1  0.20890000  0.17010000  0.11070000  1
  C  C1  1  0.48550000  0.42110000  0.95510000  1
  C  C2  1  0.48350000  0.91360000  0.73630000  1
  C  C3  1  0.79110000  0.82990000  0.61070000  1
  C  C4  1  0.51450000  0.57890000  0.45510000  1
  C  C5  1  0.51650000  0.08640000  0.23630000  1
  C  C6  1  0.70890000  0.32990000  0.11070000  1
  C  C7  1  0.98550000  0.07890000  0.95510000  1
  C  C8  1  0.98350000  0.58640000  0.73630000  1
  C  C9  1  0.29110000  0.67010000  0.61070000  1
  C  C10  1  0.01450000  0.92110000  0.45510000  1
  C  C11  1  0.01650000  0.41360000  0.23630000  1
  N  N12  1  0.29300000  0.16880000  0.08040000  1
  N  N13  1  0.45970000  0.50640000  0.84680000  1
  N  N14  1  0.46280000  0.99970000  0.84760000  1
  N  N15  1  0.70700000  0.83120000  0.58040000  1
  N  N16  1  0.54030000  0.49360000  0.34680000  1
  N  N17  1  0.53720000  0.00030000  0.34760000  1
  N  N18  1  0.79300000  0.33120000  0.08040000  1
  N  N19  1  0.95970000  0.99360000  0.84680000  1
  N  N20  1  0.96280000  0.50030000  0.84760000  1
  N  N21  1  0.20700000  0.66880000  0.58040000  1
  N  N22  1  0.04030000  0.00640000  0.34680000  1
  N  N23  1  0.03720000  0.49970000  0.34760000  1
