# generated using pymatgen
data_Cu
_symmetry_space_group_name_H-M   'P 1'
_cell_length_a   13.50400000
_cell_length_b   7.44470000
_cell_length_c   8.20590000
_cell_angle_alpha   90.00000000
_cell_angle_beta   90.00000000
_cell_angle_gamma   90.00000000
_symmetry_Int_Tables_number   1
_chemical_formula_structural   Cu
_chemical_formula_sum   Cu8
_cell_volume   824.96562221
_cell_formula_units_Z   8
loop_
 _symmetry_equiv_pos_site_id
 _symmetry_equiv_pos_as_xyz
  1  'x, y, z'
loop_
 _atom_site_type_symbol
 _atom_site_label
 _atom_site_symmetry_multiplicity
 _atom_site_fract_x
 _atom_site_fract_y
 _atom_site_fract_z
 _atom_site_occupancy
  Cu  Cu0  1  0.43512000  0.15208000  0.03785000  1
  Cu  Cu1  1  0.06663000  0.15093000  0.14566000  1
  Cu  Cu2  1  0.56488000  0.84792000  0.53785000  1
  Cu  Cu3  1  0.93337000  0.84907000  0.64566000  1
  Cu  Cu4  1  0.93512000  0.34792000  0.03785000  1
  Cu  Cu5  1  0.56663000  0.34907000  0.14566000  1
  Cu  Cu6  1  0.06488000  0.65208000  0.53785000  1
  Cu  Cu7  1  0.43337000  0.65093000  0.64566000  1
