# generated using pymatgen
data_BH12C13(N4O)2
_symmetry_space_group_name_H-M   'P 1'
_cell_length_a   8.86490000
_cell_length_b   10.55650000
_cell_length_c   10.63100000
_cell_angle_alpha   99.98600000
_cell_angle_beta   110.23300000
_cell_angle_gamma   97.81900000
_symmetry_Int_Tables_number   1
_chemical_formula_structural   BH12C13(N4O)2
_chemical_formula_sum   'B2 H24 C26 N16 O4'
_cell_volume   898.42101199
_cell_formula_units_Z   2
loop_
 _symmetry_equiv_pos_site_id
 _symmetry_equiv_pos_as_xyz
  1  'x, y, z'
loop_
 _atom_site_type_symbol
 _atom_site_label
 _atom_site_symmetry_multiplicity
 _atom_site_fract_x
 _atom_site_fract_y
 _atom_site_fract_z
 _atom_site_occupancy
  B  B0  1  0.13740000  0.18780000  0.89610000  1
  B  B1  1  0.86260000  0.81220000  0.10390000  1
  H  H2  1  0.46130000  0.33630000  0.03110000  1
  H  H3  1  0.21840000  0.03630000  0.10860000  1
  H  H4  1  0.11890000  0.45390000  0.90430000  1
  H  H5  1  0.07260000  0.24180000  0.14230000  1
  H  H6  1  0.29670000  0.97800000  0.87360000  1
  H  H7  1  0.65400000  0.29330000  0.89580000  1
  H  H8  1  0.50710000  0.08750000  0.26920000  1
  H  H9  1  0.80960000  0.23030000  0.75350000  1
  H  H10  1  0.38020000  0.42770000  0.67330000  1
  H  H11  1  0.31130000  0.20850000  0.71190000  1
  H  H12  1  0.89620000  0.81000000  0.55240000  1
  H  H13  1  0.85730000  0.02370000  0.65230000  1
  H  H14  1  0.53870000  0.66370000  0.96890000  1
  H  H15  1  0.78160000  0.96370000  0.89140000  1
  H  H16  1  0.88110000  0.54610000  0.09570000  1
  H  H17  1  0.92740000  0.75820000  0.85770000  1
  H  H18  1  0.70330000  0.02200000  0.12640000  1
  H  H19  1  0.34600000  0.70670000  0.10420000  1
  H  H20  1  0.49290000  0.91250000  0.73080000  1
  H  H21  1  0.19040000  0.76970000  0.24650000  1
  H  H22  1  0.61980000  0.57230000  0.32670000  1
  H  H23  1  0.68870000  0.79150000  0.28810000  1
  H  H24  1  0.10380000  0.19000000  0.44760000  1
  H  H25  1  0.14270000  0.97630000  0.34770000  1
  C  C26  1  0.43730000  0.26780000  0.07030000  1
  C  C27  1  0.30170000  0.10230000  0.11190000  1
  C  C28  1  0.17490000  0.42030000  0.85100000  1
  C  C29  1  0.92960000  0.48810000  0.52690000  1
  C  C30  1  0.98760000  0.24630000  0.06300000  1
  C  C31  1  0.19170000  0.96260000  0.80600000  1
  C  C32  1  0.75840000  0.27490000  0.92800000  1
  C  C33  1  0.46210000  0.13140000  0.20110000  1
  C  C34  1  0.84410000  0.23950000  0.84830000  1
  C  C35  1  0.31850000  0.40570000  0.72440000  1
  C  C36  1  0.28050000  0.28390000  0.74560000  1
  C  C37  1  0.97240000  0.87050000  0.63060000  1
  C  C38  1  0.95080000  0.98930000  0.68490000  1
  C  C39  1  0.56270000  0.73220000  0.92970000  1
  C  C40  1  0.69830000  0.89770000  0.88810000  1
  C  C41  1  0.82510000  0.57970000  0.14900000  1
  C  C42  1  0.07040000  0.51190000  0.47310000  1
  C  C43  1  0.01240000  0.75370000  0.93700000  1
  C  C44  1  0.80830000  0.03740000  0.19400000  1
  C  C45  1  0.24160000  0.72510000  0.07200000  1
  C  C46  1  0.53790000  0.86860000  0.79890000  1
  C  C47  1  0.15590000  0.76050000  0.15170000  1
  C  C48  1  0.68150000  0.59430000  0.27560000  1
  C  C49  1  0.71950000  0.71610000  0.25440000  1
  C  C50  1  0.02760000  0.12950000  0.36940000  1
  C  C51  1  0.04920000  0.01070000  0.31510000  1
  N  N52  1  0.18770000  0.29320000  0.82650000  1
  N  N53  1  0.28630000  0.18980000  0.02680000  1
  N  N54  1  0.54740000  0.23690000  0.17420000  1
  N  N55  1  0.09330000  0.05010000  0.79760000  1
  N  N56  1  0.99250000  0.21970000  0.93470000  1
  N  N57  1  0.12410000  0.85330000  0.70880000  1
  N  N58  1  0.84930000  0.27930000  0.06280000  1
  N  N59  1  0.25030000  0.49190000  0.79140000  1
  N  N60  1  0.81230000  0.70680000  0.17350000  1
  N  N61  1  0.71370000  0.81020000  0.97320000  1
  N  N62  1  0.45260000  0.76310000  0.82580000  1
  N  N63  1  0.90670000  0.94990000  0.20240000  1
  N  N64  1  0.00750000  0.78030000  0.06530000  1
  N  N65  1  0.87590000  0.14670000  0.29120000  1
  N  N66  1  0.15070000  0.72070000  0.93720000  1
  N  N67  1  0.74970000  0.50810000  0.20860000  1
  O  O68  1  0.80990000  0.39510000  0.45530000  1
  O  O69  1  0.94710000  0.56440000  0.63780000  1
  O  O70  1  0.19010000  0.60490000  0.54470000  1
  O  O71  1  0.05290000  0.43560000  0.36220000  1
