# generated using pymatgen
data_Zn
_symmetry_space_group_name_H-M   'P 1'
_cell_length_a   8.86490000
_cell_length_b   10.55650000
_cell_length_c   10.63100000
_cell_angle_alpha   99.98600000
_cell_angle_beta   110.23300000
_cell_angle_gamma   97.81900000
_symmetry_Int_Tables_number   1
_chemical_formula_structural   Zn
_chemical_formula_sum   Zn2
_cell_volume   898.42101199
_cell_formula_units_Z   2
loop_
 _symmetry_equiv_pos_site_id
 _symmetry_equiv_pos_as_xyz
  1  'x, y, z'
loop_
 _atom_site_type_symbol
 _atom_site_label
 _atom_site_symmetry_multiplicity
 _atom_site_fract_x
 _atom_site_fract_y
 _atom_site_fract_z
 _atom_site_occupancy
  Zn  Zn0  1  0.79770000  0.32194000  0.24878000  1
  Zn  Zn1  1  0.20230000  0.67806000  0.75122000  1
