# generated using pymatgen
data_Zn(N2O)2
_symmetry_space_group_name_H-M   'P 1'
_cell_length_a   8.86490000
_cell_length_b   10.55650000
_cell_length_c   10.63100000
_cell_angle_alpha   99.98600000
_cell_angle_beta   110.23300000
_cell_angle_gamma   97.81900000
_symmetry_Int_Tables_number   1
_chemical_formula_structural   Zn(N2O)2
_chemical_formula_sum   'Zn1 N4 O2'
_cell_volume   898.42101199
_cell_formula_units_Z   1
loop_
 _symmetry_equiv_pos_site_id
 _symmetry_equiv_pos_as_xyz
  1  'x, y, z'
loop_
 _atom_site_type_symbol
 _atom_site_label
 _atom_site_symmetry_multiplicity
 _atom_site_fract_x
 _atom_site_fract_y
 _atom_site_fract_z
 _atom_site_occupancy
  Zn  Zn0  1  0.20230000  0.67806000  0.75122000  1
  N  N1  1  0.12410000  0.85330000  0.70880000  1
  N  N2  1  0.25030000  0.49190000  0.79140000  1
  N  N3  1  0.45260000  0.76310000  0.82580000  1
  N  N4  1  0.15070000  0.72070000  0.93720000  1
  O  O5  1  -0.05290000  0.56440000  0.63780000  1
  O  O6  1  0.19010000  0.60490000  0.54470000  1
